* NGSPICE file created from egd_top.ext - technology: sky130A

* Black-box entry subcircuit for sky130_fd_sc_hd__tapvpwrvgnd_1 abstract view
.subckt sky130_fd_sc_hd__tapvpwrvgnd_1 VGND VPWR
.ends

* Black-box entry subcircuit for sky130_fd_sc_hd__buf_2 abstract view
.subckt sky130_fd_sc_hd__buf_2 A VGND VNB VPB VPWR X
.ends

* Black-box entry subcircuit for sky130_fd_sc_hd__decap_8 abstract view
.subckt sky130_fd_sc_hd__decap_8 VGND VNB VPB VPWR
.ends

* Black-box entry subcircuit for sky130_fd_sc_hd__nor3_4 abstract view
.subckt sky130_fd_sc_hd__nor3_4 A B C VGND VNB VPB VPWR Y
.ends

* Black-box entry subcircuit for sky130_fd_sc_hd__decap_6 abstract view
.subckt sky130_fd_sc_hd__decap_6 VGND VNB VPB VPWR
.ends

* Black-box entry subcircuit for sky130_ef_sc_hd__decap_12 abstract view
.subckt sky130_ef_sc_hd__decap_12 VGND VNB VPB VPWR
.ends

* Black-box entry subcircuit for sky130_fd_sc_hd__a221oi_1 abstract view
.subckt sky130_fd_sc_hd__a221oi_1 A1 A2 B1 B2 C1 VGND VNB VPB VPWR Y
.ends

* Black-box entry subcircuit for sky130_fd_sc_hd__nor2_1 abstract view
.subckt sky130_fd_sc_hd__nor2_1 A B VGND VNB VPB VPWR Y
.ends

* Black-box entry subcircuit for sky130_fd_sc_hd__mux2_1 abstract view
.subckt sky130_fd_sc_hd__mux2_1 A0 A1 S VGND VNB VPB VPWR X
.ends

* Black-box entry subcircuit for sky130_fd_sc_hd__decap_4 abstract view
.subckt sky130_fd_sc_hd__decap_4 VGND VNB VPB VPWR
.ends

* Black-box entry subcircuit for sky130_fd_sc_hd__a22o_1 abstract view
.subckt sky130_fd_sc_hd__a22o_1 A1 A2 B1 B2 VGND VNB VPB VPWR X
.ends

* Black-box entry subcircuit for sky130_fd_sc_hd__clkbuf_1 abstract view
.subckt sky130_fd_sc_hd__clkbuf_1 A VGND VNB VPB VPWR X
.ends

* Black-box entry subcircuit for sky130_fd_sc_hd__fill_1 abstract view
.subckt sky130_fd_sc_hd__fill_1 VGND VNB VPB VPWR
.ends

* Black-box entry subcircuit for sky130_fd_sc_hd__and4_1 abstract view
.subckt sky130_fd_sc_hd__and4_1 A B C D VGND VNB VPB VPWR X
.ends

* Black-box entry subcircuit for sky130_fd_sc_hd__o2111a_1 abstract view
.subckt sky130_fd_sc_hd__o2111a_1 A1 A2 B1 C1 D1 VGND VNB VPB VPWR X
.ends

* Black-box entry subcircuit for sky130_fd_sc_hd__inv_2 abstract view
.subckt sky130_fd_sc_hd__inv_2 A VGND VNB VPB VPWR Y
.ends

* Black-box entry subcircuit for sky130_fd_sc_hd__decap_3 abstract view
.subckt sky130_fd_sc_hd__decap_3 VGND VNB VPB VPWR
.ends

* Black-box entry subcircuit for sky130_fd_sc_hd__and2_1 abstract view
.subckt sky130_fd_sc_hd__and2_1 A B VGND VNB VPB VPWR X
.ends

* Black-box entry subcircuit for sky130_fd_sc_hd__or2_1 abstract view
.subckt sky130_fd_sc_hd__or2_1 A B VGND VNB VPB VPWR X
.ends

* Black-box entry subcircuit for sky130_fd_sc_hd__o22ai_1 abstract view
.subckt sky130_fd_sc_hd__o22ai_1 A1 A2 B1 B2 VGND VNB VPB VPWR Y
.ends

* Black-box entry subcircuit for sky130_fd_sc_hd__nand2_4 abstract view
.subckt sky130_fd_sc_hd__nand2_4 A B VGND VNB VPB VPWR Y
.ends

* Black-box entry subcircuit for sky130_fd_sc_hd__clkbuf_16 abstract view
.subckt sky130_fd_sc_hd__clkbuf_16 A VGND VNB VPB VPWR X
.ends

* Black-box entry subcircuit for sky130_fd_sc_hd__nand2_1 abstract view
.subckt sky130_fd_sc_hd__nand2_1 A B VGND VNB VPB VPWR Y
.ends

* Black-box entry subcircuit for sky130_fd_sc_hd__nor3_1 abstract view
.subckt sky130_fd_sc_hd__nor3_1 A B C VGND VNB VPB VPWR Y
.ends

* Black-box entry subcircuit for sky130_fd_sc_hd__nand3_1 abstract view
.subckt sky130_fd_sc_hd__nand3_1 A B C VGND VNB VPB VPWR Y
.ends

* Black-box entry subcircuit for sky130_fd_sc_hd__dfxtp_2 abstract view
.subckt sky130_fd_sc_hd__dfxtp_2 CLK D VGND VNB VPB VPWR Q
.ends

* Black-box entry subcircuit for sky130_fd_sc_hd__dfxtp_1 abstract view
.subckt sky130_fd_sc_hd__dfxtp_1 CLK D VGND VNB VPB VPWR Q
.ends

* Black-box entry subcircuit for sky130_fd_sc_hd__or4_1 abstract view
.subckt sky130_fd_sc_hd__or4_1 A B C D VGND VNB VPB VPWR X
.ends

* Black-box entry subcircuit for sky130_fd_sc_hd__fill_2 abstract view
.subckt sky130_fd_sc_hd__fill_2 VGND VNB VPB VPWR
.ends

* Black-box entry subcircuit for sky130_fd_sc_hd__o21ai_1 abstract view
.subckt sky130_fd_sc_hd__o21ai_1 A1 A2 B1 VGND VNB VPB VPWR Y
.ends

* Black-box entry subcircuit for sky130_fd_sc_hd__nand3b_1 abstract view
.subckt sky130_fd_sc_hd__nand3b_1 A_N B C VGND VNB VPB VPWR Y
.ends

* Black-box entry subcircuit for sky130_fd_sc_hd__buf_4 abstract view
.subckt sky130_fd_sc_hd__buf_4 A VGND VNB VPB VPWR X
.ends

* Black-box entry subcircuit for sky130_fd_sc_hd__diode_2 abstract view
.subckt sky130_fd_sc_hd__diode_2 DIODE VGND VNB VPB VPWR
.ends

* Black-box entry subcircuit for sky130_fd_sc_hd__a21oi_1 abstract view
.subckt sky130_fd_sc_hd__a21oi_1 A1 A2 B1 VGND VNB VPB VPWR Y
.ends

* Black-box entry subcircuit for sky130_fd_sc_hd__dfxtp_4 abstract view
.subckt sky130_fd_sc_hd__dfxtp_4 CLK D VGND VNB VPB VPWR Q
.ends

* Black-box entry subcircuit for sky130_fd_sc_hd__buf_12 abstract view
.subckt sky130_fd_sc_hd__buf_12 A VGND VNB VPB VPWR X
.ends

* Black-box entry subcircuit for sky130_fd_sc_hd__nor2_2 abstract view
.subckt sky130_fd_sc_hd__nor2_2 A B VGND VNB VPB VPWR Y
.ends

* Black-box entry subcircuit for sky130_fd_sc_hd__inv_4 abstract view
.subckt sky130_fd_sc_hd__inv_4 A VGND VNB VPB VPWR Y
.ends

* Black-box entry subcircuit for sky130_fd_sc_hd__and3_1 abstract view
.subckt sky130_fd_sc_hd__and3_1 A B C VGND VNB VPB VPWR X
.ends

* Black-box entry subcircuit for sky130_fd_sc_hd__buf_1 abstract view
.subckt sky130_fd_sc_hd__buf_1 A VGND VNB VPB VPWR X
.ends

* Black-box entry subcircuit for sky130_fd_sc_hd__nand2_2 abstract view
.subckt sky130_fd_sc_hd__nand2_2 A B VGND VNB VPB VPWR Y
.ends

* Black-box entry subcircuit for sky130_fd_sc_hd__clkbuf_4 abstract view
.subckt sky130_fd_sc_hd__clkbuf_4 A VGND VNB VPB VPWR X
.ends

* Black-box entry subcircuit for sky130_fd_sc_hd__a2bb2o_1 abstract view
.subckt sky130_fd_sc_hd__a2bb2o_1 A1_N A2_N B1 B2 VGND VNB VPB VPWR X
.ends

* Black-box entry subcircuit for sky130_fd_sc_hd__or4b_1 abstract view
.subckt sky130_fd_sc_hd__or4b_1 A B C D_N VGND VNB VPB VPWR X
.ends

* Black-box entry subcircuit for sky130_fd_sc_hd__and2_2 abstract view
.subckt sky130_fd_sc_hd__and2_2 A B VGND VNB VPB VPWR X
.ends

* Black-box entry subcircuit for sky130_fd_sc_hd__o21a_1 abstract view
.subckt sky130_fd_sc_hd__o21a_1 A1 A2 B1 VGND VNB VPB VPWR X
.ends

* Black-box entry subcircuit for sky130_fd_sc_hd__clkbuf_2 abstract view
.subckt sky130_fd_sc_hd__clkbuf_2 A VGND VNB VPB VPWR X
.ends

* Black-box entry subcircuit for sky130_fd_sc_hd__nor2_4 abstract view
.subckt sky130_fd_sc_hd__nor2_4 A B VGND VNB VPB VPWR Y
.ends

* Black-box entry subcircuit for sky130_fd_sc_hd__or4b_2 abstract view
.subckt sky130_fd_sc_hd__or4b_2 A B C D_N VGND VNB VPB VPWR X
.ends

* Black-box entry subcircuit for sky130_fd_sc_hd__a21o_1 abstract view
.subckt sky130_fd_sc_hd__a21o_1 A1 A2 B1 VGND VNB VPB VPWR X
.ends

* Black-box entry subcircuit for sky130_fd_sc_hd__or3_1 abstract view
.subckt sky130_fd_sc_hd__or3_1 A B C VGND VNB VPB VPWR X
.ends

* Black-box entry subcircuit for sky130_fd_sc_hd__xor2_4 abstract view
.subckt sky130_fd_sc_hd__xor2_4 A B VGND VNB VPB VPWR X
.ends

* Black-box entry subcircuit for sky130_fd_sc_hd__o32a_1 abstract view
.subckt sky130_fd_sc_hd__o32a_1 A1 A2 A3 B1 B2 VGND VNB VPB VPWR X
.ends

* Black-box entry subcircuit for sky130_fd_sc_hd__inv_6 abstract view
.subckt sky130_fd_sc_hd__inv_6 A VGND VNB VPB VPWR Y
.ends

* Black-box entry subcircuit for sky130_fd_sc_hd__xor2_1 abstract view
.subckt sky130_fd_sc_hd__xor2_1 A B VGND VNB VPB VPWR X
.ends

* Black-box entry subcircuit for sky130_fd_sc_hd__a31o_1 abstract view
.subckt sky130_fd_sc_hd__a31o_1 A1 A2 A3 B1 VGND VNB VPB VPWR X
.ends

* Black-box entry subcircuit for sky130_fd_sc_hd__o21bai_4 abstract view
.subckt sky130_fd_sc_hd__o21bai_4 A1 A2 B1_N VGND VNB VPB VPWR Y
.ends

* Black-box entry subcircuit for sky130_fd_sc_hd__a21oi_2 abstract view
.subckt sky130_fd_sc_hd__a21oi_2 A1 A2 B1 VGND VNB VPB VPWR Y
.ends

* Black-box entry subcircuit for sky130_fd_sc_hd__o21ba_1 abstract view
.subckt sky130_fd_sc_hd__o21ba_1 A1 A2 B1_N VGND VNB VPB VPWR X
.ends

* Black-box entry subcircuit for sky130_fd_sc_hd__a211o_1 abstract view
.subckt sky130_fd_sc_hd__a211o_1 A1 A2 B1 C1 VGND VNB VPB VPWR X
.ends

* Black-box entry subcircuit for sky130_fd_sc_hd__a32o_1 abstract view
.subckt sky130_fd_sc_hd__a32o_1 A1 A2 A3 B1 B2 VGND VNB VPB VPWR X
.ends

* Black-box entry subcircuit for sky130_fd_sc_hd__xnor2_4 abstract view
.subckt sky130_fd_sc_hd__xnor2_4 A B VGND VNB VPB VPWR Y
.ends

* Black-box entry subcircuit for sky130_fd_sc_hd__a221oi_2 abstract view
.subckt sky130_fd_sc_hd__a221oi_2 A1 A2 B1 B2 C1 VGND VNB VPB VPWR Y
.ends

* Black-box entry subcircuit for sky130_fd_sc_hd__o21ai_2 abstract view
.subckt sky130_fd_sc_hd__o21ai_2 A1 A2 B1 VGND VNB VPB VPWR Y
.ends

* Black-box entry subcircuit for sky130_fd_sc_hd__a2111o_1 abstract view
.subckt sky130_fd_sc_hd__a2111o_1 A1 A2 B1 C1 D1 VGND VNB VPB VPWR X
.ends

* Black-box entry subcircuit for sky130_fd_sc_hd__xnor2_1 abstract view
.subckt sky130_fd_sc_hd__xnor2_1 A B VGND VNB VPB VPWR Y
.ends

* Black-box entry subcircuit for sky130_fd_sc_hd__buf_6 abstract view
.subckt sky130_fd_sc_hd__buf_6 A VGND VNB VPB VPWR X
.ends

* Black-box entry subcircuit for sky130_fd_sc_hd__a41o_1 abstract view
.subckt sky130_fd_sc_hd__a41o_1 A1 A2 A3 A4 B1 VGND VNB VPB VPWR X
.ends

* Black-box entry subcircuit for sky130_fd_sc_hd__and3_2 abstract view
.subckt sky130_fd_sc_hd__and3_2 A B C VGND VNB VPB VPWR X
.ends

* Black-box entry subcircuit for sky130_fd_sc_hd__a311o_1 abstract view
.subckt sky130_fd_sc_hd__a311o_1 A1 A2 A3 B1 C1 VGND VNB VPB VPWR X
.ends

* Black-box entry subcircuit for sky130_fd_sc_hd__and3b_1 abstract view
.subckt sky130_fd_sc_hd__and3b_1 A_N B C VGND VNB VPB VPWR X
.ends

* Black-box entry subcircuit for sky130_fd_sc_hd__nor3_2 abstract view
.subckt sky130_fd_sc_hd__nor3_2 A B C VGND VNB VPB VPWR Y
.ends

* Black-box entry subcircuit for sky130_fd_sc_hd__nand3_4 abstract view
.subckt sky130_fd_sc_hd__nand3_4 A B C VGND VNB VPB VPWR Y
.ends

* Black-box entry subcircuit for sky130_fd_sc_hd__o211a_1 abstract view
.subckt sky130_fd_sc_hd__o211a_1 A1 A2 B1 C1 VGND VNB VPB VPWR X
.ends

* Black-box entry subcircuit for sky130_fd_sc_hd__a21bo_1 abstract view
.subckt sky130_fd_sc_hd__a21bo_1 A1 A2 B1_N VGND VNB VPB VPWR X
.ends

* Black-box entry subcircuit for sky130_fd_sc_hd__clkbuf_8 abstract view
.subckt sky130_fd_sc_hd__clkbuf_8 A VGND VNB VPB VPWR X
.ends

* Black-box entry subcircuit for sky130_fd_sc_hd__dlygate4sd3_1 abstract view
.subckt sky130_fd_sc_hd__dlygate4sd3_1 A VGND VNB VPB VPWR X
.ends

* Black-box entry subcircuit for sky130_fd_sc_hd__o211ai_1 abstract view
.subckt sky130_fd_sc_hd__o211ai_1 A1 A2 B1 C1 VGND VNB VPB VPWR Y
.ends

* Black-box entry subcircuit for sky130_fd_sc_hd__nand2b_1 abstract view
.subckt sky130_fd_sc_hd__nand2b_1 A_N B VGND VNB VPB VPWR Y
.ends

* Black-box entry subcircuit for sky130_fd_sc_hd__o21ai_4 abstract view
.subckt sky130_fd_sc_hd__o21ai_4 A1 A2 B1 VGND VNB VPB VPWR Y
.ends

* Black-box entry subcircuit for sky130_fd_sc_hd__and2b_2 abstract view
.subckt sky130_fd_sc_hd__and2b_2 A_N B VGND VNB VPB VPWR X
.ends

* Black-box entry subcircuit for sky130_fd_sc_hd__a31oi_2 abstract view
.subckt sky130_fd_sc_hd__a31oi_2 A1 A2 A3 B1 VGND VNB VPB VPWR Y
.ends

* Black-box entry subcircuit for sky130_fd_sc_hd__nand3_2 abstract view
.subckt sky130_fd_sc_hd__nand3_2 A B C VGND VNB VPB VPWR Y
.ends

.subckt egd_top BitStream_buffer_input[0] BitStream_buffer_input[10] BitStream_buffer_input[11]
+ BitStream_buffer_input[12] BitStream_buffer_input[13] BitStream_buffer_input[14]
+ BitStream_buffer_input[15] BitStream_buffer_input[1] BitStream_buffer_input[2] BitStream_buffer_input[3]
+ BitStream_buffer_input[4] BitStream_buffer_input[5] BitStream_buffer_input[6] BitStream_buffer_input[7]
+ BitStream_buffer_input[8] BitStream_buffer_input[9] clk exp_golomb_decoding_output[0]
+ exp_golomb_decoding_output[1] exp_golomb_decoding_output[2] exp_golomb_decoding_output[3]
+ exp_golomb_decoding_output[4] exp_golomb_decoding_output[5] exp_golomb_decoding_output[6]
+ exp_golomb_decoding_output[7] exp_golomb_sel[0] exp_golomb_sel[1] half_fill_counter[0]
+ half_fill_counter[1] half_fill_counter[2] reset_counter[0] reset_counter[1] reset_counter[2]
+ reset_counter[3] reset_n vccd1 vssd1
XTAP_177 vssd1 vccd1 sky130_fd_sc_hd__tapvpwrvgnd_1
XTAP_188 vssd1 vccd1 sky130_fd_sc_hd__tapvpwrvgnd_1
XTAP_199 vssd1 vccd1 sky130_fd_sc_hd__tapvpwrvgnd_1
X_3155_ _2688_ vssd1 vssd1 vccd1 vccd1 _2689_ sky130_fd_sc_hd__buf_2
XFILLER_0_27_93 vssd1 vssd1 vccd1 vccd1 sky130_fd_sc_hd__decap_8
X_3086_ BitStream_buffer.pc\[2\] _2604_ _2619_ vssd1 vssd1 vccd1 vccd1 _2620_ sky130_fd_sc_hd__nor3_4
XFILLER_0_76_133 vssd1 vssd1 vccd1 vccd1 sky130_fd_sc_hd__decap_6
XFILLER_0_76_177 vssd1 vssd1 vccd1 vccd1 sky130_ef_sc_hd__decap_12
XFILLER_0_9_455 vssd1 vssd1 vccd1 vccd1 sky130_ef_sc_hd__decap_12
X_3988_ BitStream_buffer.BS_buffer\[23\] _0351_ BitStream_buffer.BS_buffer\[24\] _0354_
+ _0776_ vssd1 vssd1 vccd1 vccd1 _0777_ sky130_fd_sc_hd__a221oi_1
X_5727_ _2351_ _2329_ vssd1 vssd1 vccd1 vccd1 _2352_ sky130_fd_sc_hd__nor2_1
XFILLER_0_60_501 vssd1 vssd1 vccd1 vccd1 sky130_ef_sc_hd__decap_12
X_5658_ net11 BitStream_buffer.BS_buffer\[123\] _2266_ vssd1 vssd1 vccd1 vccd1 _2291_
+ sky130_fd_sc_hd__mux2_1
XFILLER_0_4_160 vssd1 vssd1 vccd1 vccd1 sky130_fd_sc_hd__decap_4
X_4609_ _3051_ _3034_ _3036_ _0521_ vssd1 vssd1 vccd1 vccd1 _1392_ sky130_fd_sc_hd__a22o_1
X_5589_ _2243_ vssd1 vssd1 vccd1 vccd1 _0190_ sky130_fd_sc_hd__clkbuf_1
XFILLER_0_7_92 vssd1 vssd1 vccd1 vccd1 sky130_fd_sc_hd__fill_1
XFILLER_0_67_111 vssd1 vssd1 vccd1 vccd1 sky130_fd_sc_hd__fill_1
XFILLER_0_70_309 vssd1 vssd1 vccd1 vccd1 sky130_ef_sc_hd__decap_12
XFILLER_0_63_361 vssd1 vssd1 vccd1 vccd1 sky130_ef_sc_hd__decap_12
XFILLER_0_3_39 vssd1 vssd1 vccd1 vccd1 sky130_ef_sc_hd__decap_12
X_4960_ _1729_ _1733_ _1736_ _1738_ vssd1 vssd1 vccd1 vccd1 _1739_ sky130_fd_sc_hd__and4_1
X_4891_ _3024_ _2848_ _1668_ _1669_ _1670_ vssd1 vssd1 vccd1 vccd1 _1671_ sky130_fd_sc_hd__o2111a_1
X_3911_ _0434_ _2744_ _0697_ _0698_ _0699_ vssd1 vssd1 vccd1 vccd1 _0700_ sky130_fd_sc_hd__o2111a_1
XFILLER_0_73_125 vssd1 vssd1 vccd1 vccd1 sky130_ef_sc_hd__decap_12
XFILLER_0_13_51 vssd1 vssd1 vccd1 vccd1 sky130_fd_sc_hd__decap_4
X_3842_ BitStream_buffer.BS_buffer\[61\] vssd1 vssd1 vccd1 vccd1 _0632_ sky130_fd_sc_hd__inv_2
XFILLER_0_46_328 vssd1 vssd1 vccd1 vccd1 sky130_fd_sc_hd__fill_1
XFILLER_0_73_169 vssd1 vssd1 vccd1 vccd1 sky130_ef_sc_hd__decap_12
XFILLER_0_14_203 vssd1 vssd1 vccd1 vccd1 sky130_fd_sc_hd__decap_3
X_5512_ net1 BitStream_buffer.BS_buffer\[79\] _2156_ vssd1 vssd1 vccd1 vccd1 _2189_
+ sky130_fd_sc_hd__mux2_1
XFILLER_0_42_501 vssd1 vssd1 vccd1 vccd1 sky130_ef_sc_hd__decap_12
X_3773_ _0551_ _0555_ _0559_ _0562_ vssd1 vssd1 vccd1 vccd1 _0563_ sky130_fd_sc_hd__and4_1
X_5443_ _2141_ _2127_ vssd1 vssd1 vccd1 vccd1 _2142_ sky130_fd_sc_hd__and2_1
X_5374_ BitStream_buffer.pc_previous\[1\] BitStream_buffer.exp_golomb_len\[1\] vssd1
+ vssd1 vccd1 vccd1 _2095_ sky130_fd_sc_hd__or2_1
X_4325_ _2698_ _2670_ _0549_ _2675_ vssd1 vssd1 vccd1 vccd1 _1110_ sky130_fd_sc_hd__o22ai_1
XFILLER_0_10_475 vssd1 vssd1 vccd1 vccd1 sky130_fd_sc_hd__fill_1
X_4256_ _2867_ _2829_ _1039_ _1040_ _1041_ vssd1 vssd1 vccd1 vccd1 _1042_ sky130_fd_sc_hd__o2111a_1
X_6014__112 clknet_1_0__leaf__2586_ vssd1 vssd1 vccd1 vccd1 net148 sky130_fd_sc_hd__inv_2
X_4187_ _3027_ _3022_ vssd1 vssd1 vccd1 vccd1 _0974_ sky130_fd_sc_hd__nor2_1
X_3207_ BitStream_buffer.BS_buffer\[94\] _2729_ BitStream_buffer.BS_buffer\[95\] _2732_
+ _2740_ vssd1 vssd1 vccd1 vccd1 _2741_ sky130_fd_sc_hd__a221oi_1
X_3138_ _2641_ _2666_ vssd1 vssd1 vccd1 vccd1 _2672_ sky130_fd_sc_hd__nand2_4
X_3069_ _2602_ vssd1 vssd1 vccd1 vccd1 _2603_ sky130_fd_sc_hd__inv_2
XFILLER_0_49_144 vssd1 vssd1 vccd1 vccd1 sky130_fd_sc_hd__fill_1
XFILLER_0_77_497 vssd1 vssd1 vccd1 vccd1 sky130_fd_sc_hd__decap_6
X_5973__75 clknet_1_0__leaf__2582_ vssd1 vssd1 vccd1 vccd1 net111 sky130_fd_sc_hd__inv_2
X_6060__154 clknet_1_1__leaf__2590_ vssd1 vssd1 vccd1 vccd1 net190 sky130_fd_sc_hd__inv_2
Xclkbuf_1_1__f__2584_ clknet_0__2584_ vssd1 vssd1 vccd1 vccd1 clknet_1_1__leaf__2584_
+ sky130_fd_sc_hd__clkbuf_16
XFILLER_0_68_475 vssd1 vssd1 vccd1 vccd1 sky130_fd_sc_hd__fill_1
XFILLER_0_70_139 vssd1 vssd1 vccd1 vccd1 sky130_fd_sc_hd__fill_1
XFILLER_0_36_394 vssd1 vssd1 vccd1 vccd1 sky130_fd_sc_hd__decap_3
XFILLER_0_59_69 vssd1 vssd1 vccd1 vccd1 sky130_ef_sc_hd__decap_12
X_5090_ _2818_ BitStream_buffer.BS_buffer\[114\] vssd1 vssd1 vccd1 vccd1 _1868_ sky130_fd_sc_hd__nand2_1
X_4110_ BitStream_buffer.BS_buffer\[79\] _2617_ BitStream_buffer.BS_buffer\[80\] _2624_
+ _0896_ vssd1 vssd1 vccd1 vccd1 _0897_ sky130_fd_sc_hd__a221oi_1
XFILLER_0_75_57 vssd1 vssd1 vccd1 vccd1 sky130_ef_sc_hd__decap_12
X_4041_ _2835_ BitStream_buffer.BS_buffer\[114\] vssd1 vssd1 vccd1 vccd1 _0829_ sky130_fd_sc_hd__nand2_1
X_4943_ _1691_ _1701_ _1722_ vssd1 vssd1 vccd1 vccd1 _1723_ sky130_fd_sc_hd__nor3_1
XFILLER_0_74_401 vssd1 vssd1 vccd1 vccd1 sky130_ef_sc_hd__decap_12
XFILLER_0_59_497 vssd1 vssd1 vccd1 vccd1 sky130_fd_sc_hd__decap_6
XFILLER_0_74_445 vssd1 vssd1 vccd1 vccd1 sky130_ef_sc_hd__decap_12
X_4874_ _2867_ _2779_ _1651_ _1652_ _1653_ vssd1 vssd1 vccd1 vccd1 _1654_ sky130_fd_sc_hd__o2111a_1
XFILLER_0_74_489 vssd1 vssd1 vccd1 vccd1 sky130_ef_sc_hd__decap_12
X_3825_ _2905_ _2916_ _2910_ _2920_ vssd1 vssd1 vccd1 vccd1 _0615_ sky130_fd_sc_hd__o22ai_1
X_3756_ _0485_ _0545_ _0546_ vssd1 vssd1 vccd1 vccd1 _0547_ sky130_fd_sc_hd__nand3_1
XFILLER_0_6_288 vssd1 vssd1 vccd1 vccd1 sky130_fd_sc_hd__fill_1
X_6109__39 clknet_1_0__leaf__2594_ vssd1 vssd1 vccd1 vccd1 net75 sky130_fd_sc_hd__inv_2
XFILLER_0_71_3 vssd1 vssd1 vccd1 vccd1 sky130_ef_sc_hd__decap_12
X_3687_ _0400_ _2878_ BitStream_buffer.BS_buffer\[127\] _2876_ _0477_ vssd1 vssd1
+ vccd1 vccd1 _0478_ sky130_fd_sc_hd__a221oi_1
X_5426_ _2130_ vssd1 vssd1 vccd1 vccd1 _0240_ sky130_fd_sc_hd__clkbuf_1
X_5357_ _2083_ _2079_ vssd1 vssd1 vccd1 vccd1 _2084_ sky130_fd_sc_hd__and2_1
X_4308_ BitStream_buffer.BS_buffer\[22\] _0365_ BitStream_buffer.BS_buffer\[23\] _0369_
+ _1093_ vssd1 vssd1 vccd1 vccd1 _1094_ sky130_fd_sc_hd__a221oi_1
X_5288_ net2 BitStream_buffer.BS_buffer\[37\] _2024_ vssd1 vssd1 vccd1 vccd1 _2036_
+ sky130_fd_sc_hd__mux2_1
X_4239_ _2733_ _2759_ _1022_ _1023_ _1024_ vssd1 vssd1 vccd1 vccd1 _1025_ sky130_fd_sc_hd__o2111a_1
XFILLER_0_4_71 vssd1 vssd1 vccd1 vccd1 sky130_fd_sc_hd__fill_1
XFILLER_0_69_217 vssd1 vssd1 vccd1 vccd1 sky130_fd_sc_hd__decap_6
XFILLER_0_84_209 vssd1 vssd1 vccd1 vccd1 sky130_ef_sc_hd__decap_12
XFILLER_0_77_261 vssd1 vssd1 vccd1 vccd1 sky130_ef_sc_hd__decap_12
XFILLER_0_37_136 vssd1 vssd1 vccd1 vccd1 sky130_fd_sc_hd__fill_1
XFILLER_0_37_158 vssd1 vssd1 vccd1 vccd1 sky130_fd_sc_hd__decap_8
XFILLER_0_45_191 vssd1 vssd1 vccd1 vccd1 sky130_fd_sc_hd__decap_8
XFILLER_0_29_17 vssd1 vssd1 vccd1 vccd1 sky130_fd_sc_hd__decap_8
XFILLER_0_61_15 vssd1 vssd1 vccd1 vccd1 sky130_ef_sc_hd__decap_12
XFILLER_0_0_29 vssd1 vssd1 vccd1 vccd1 sky130_fd_sc_hd__decap_6
XFILLER_0_56_412 vssd1 vssd1 vccd1 vccd1 sky130_fd_sc_hd__decap_8
XFILLER_0_56_445 vssd1 vssd1 vccd1 vccd1 sky130_ef_sc_hd__decap_12
XFILLER_0_56_489 vssd1 vssd1 vccd1 vccd1 sky130_ef_sc_hd__decap_12
XFILLER_0_9_27 vssd1 vssd1 vccd1 vccd1 sky130_ef_sc_hd__decap_12
X_3610_ _2904_ _0395_ _0401_ vssd1 vssd1 vccd1 vccd1 _0402_ sky130_fd_sc_hd__nand3_1
X_4590_ BitStream_buffer.BS_buffer\[41\] _2929_ _2931_ BitStream_buffer.BS_buffer\[42\]
+ vssd1 vssd1 vccd1 vccd1 _1373_ sky130_fd_sc_hd__a22o_1
X_3541_ _3046_ _0332_ vssd1 vssd1 vccd1 vccd1 _0333_ sky130_fd_sc_hd__nor2_1
XFILLER_0_10_41 vssd1 vssd1 vccd1 vccd1 sky130_ef_sc_hd__decap_12
XFILLER_0_3_258 vssd1 vssd1 vccd1 vccd1 sky130_fd_sc_hd__fill_1
XFILLER_0_10_85 vssd1 vssd1 vccd1 vccd1 sky130_fd_sc_hd__decap_4
X_6260_ net62 _0275_ vssd1 vssd1 vccd1 vccd1 BitStream_buffer.BS_buffer\[39\] sky130_fd_sc_hd__dfxtp_2
X_3472_ _2695_ _2965_ vssd1 vssd1 vccd1 vccd1 _3006_ sky130_fd_sc_hd__and2_1
X_6191_ net153 _0206_ vssd1 vssd1 vccd1 vccd1 BitStream_buffer.BS_buffer\[85\] sky130_fd_sc_hd__dfxtp_1
X_5211_ _1976_ vssd1 vssd1 vccd1 vccd1 _0295_ sky130_fd_sc_hd__clkbuf_1
X_5142_ _1914_ _1919_ vssd1 vssd1 vccd1 vccd1 _1920_ sky130_fd_sc_hd__nor2_1
X_5073_ _2748_ BitStream_buffer.BS_buffer\[94\] vssd1 vssd1 vccd1 vccd1 _1851_ sky130_fd_sc_hd__nand2_1
X_4024_ _2765_ _2725_ vssd1 vssd1 vccd1 vccd1 _0812_ sky130_fd_sc_hd__nand2_1
XFILLER_0_66_209 vssd1 vssd1 vccd1 vccd1 sky130_ef_sc_hd__decap_12
XFILLER_0_59_250 vssd1 vssd1 vccd1 vccd1 sky130_ef_sc_hd__decap_12
X_4926_ _1702_ _1703_ _1704_ _1705_ vssd1 vssd1 vccd1 vccd1 _1706_ sky130_fd_sc_hd__or4_1
XFILLER_0_74_253 vssd1 vssd1 vccd1 vccd1 sky130_ef_sc_hd__decap_12
XFILLER_0_19_158 vssd1 vssd1 vccd1 vccd1 sky130_fd_sc_hd__fill_1
XFILLER_0_19_169 vssd1 vssd1 vccd1 vccd1 sky130_fd_sc_hd__fill_1
X_4857_ _2719_ _2816_ vssd1 vssd1 vccd1 vccd1 _1637_ sky130_fd_sc_hd__nand2_1
X_3808_ _2856_ BitStream_buffer.BS_buffer\[124\] vssd1 vssd1 vccd1 vccd1 _0598_ sky130_fd_sc_hd__nand2_1
XFILLER_0_34_139 vssd1 vssd1 vccd1 vccd1 sky130_fd_sc_hd__fill_1
XFILLER_0_15_331 vssd1 vssd1 vccd1 vccd1 sky130_fd_sc_hd__decap_4
XFILLER_0_15_342 vssd1 vssd1 vccd1 vccd1 sky130_fd_sc_hd__decap_8
XFILLER_0_27_191 vssd1 vssd1 vccd1 vccd1 sky130_fd_sc_hd__decap_8
X_4788_ BitStream_buffer.BS_buffer\[1\] _2862_ _3039_ _2865_ _1568_ vssd1 vssd1 vccd1
+ vccd1 _1569_ sky130_fd_sc_hd__a221oi_1
Xclkbuf_0__2586_ _2586_ vssd1 vssd1 vccd1 vccd1 clknet_0__2586_ sky130_fd_sc_hd__clkbuf_16
XFILLER_0_15_364 vssd1 vssd1 vccd1 vccd1 sky130_fd_sc_hd__decap_8
X_3739_ _0520_ _0529_ vssd1 vssd1 vccd1 vccd1 _0530_ sky130_fd_sc_hd__nor2_1
XFILLER_0_30_312 vssd1 vssd1 vccd1 vccd1 sky130_fd_sc_hd__fill_1
X_5409_ net201 BitStream_buffer.buffer_index\[4\] vssd1 vssd1 vccd1 vccd1 _2117_ sky130_fd_sc_hd__nand2_1
X_6066__160 clknet_1_0__leaf__2590_ vssd1 vssd1 vccd1 vccd1 net196 sky130_fd_sc_hd__inv_2
XFILLER_0_80_245 vssd1 vssd1 vccd1 vccd1 sky130_fd_sc_hd__decap_6
XFILLER_0_80_289 vssd1 vssd1 vccd1 vccd1 sky130_ef_sc_hd__decap_12
XFILLER_0_33_183 vssd1 vssd1 vccd1 vccd1 sky130_fd_sc_hd__fill_2
XTAP_507 vssd1 vccd1 sky130_fd_sc_hd__tapvpwrvgnd_1
XTAP_518 vssd1 vccd1 sky130_fd_sc_hd__tapvpwrvgnd_1
XTAP_529 vssd1 vccd1 sky130_fd_sc_hd__tapvpwrvgnd_1
XFILLER_0_56_15 vssd1 vssd1 vccd1 vccd1 sky130_ef_sc_hd__decap_12
XFILLER_0_56_59 vssd1 vssd1 vccd1 vccd1 sky130_fd_sc_hd__fill_1
X_5760_ _2329_ _2360_ BitStream_buffer.BitStream_buffer_output\[3\] vssd1 vssd1 vccd1
+ vccd1 _2385_ sky130_fd_sc_hd__o21ai_1
X_5691_ _2315_ vssd1 vssd1 vccd1 vccd1 _2316_ sky130_fd_sc_hd__inv_2
X_4711_ _1488_ _1490_ _1492_ vssd1 vssd1 vccd1 vccd1 _1493_ sky130_fd_sc_hd__nand3b_1
XFILLER_0_56_253 vssd1 vssd1 vccd1 vccd1 sky130_fd_sc_hd__fill_2
XFILLER_0_71_223 vssd1 vssd1 vccd1 vccd1 sky130_fd_sc_hd__fill_1
XFILLER_0_4_501 vssd1 vssd1 vccd1 vccd1 sky130_ef_sc_hd__decap_12
XFILLER_0_16_117 vssd1 vssd1 vccd1 vccd1 sky130_fd_sc_hd__fill_2
X_4642_ _1422_ _1423_ vssd1 vssd1 vccd1 vccd1 _1424_ sky130_fd_sc_hd__nor2_1
XFILLER_0_44_459 vssd1 vssd1 vccd1 vccd1 sky130_ef_sc_hd__decap_12
X_4573_ _0512_ _2852_ vssd1 vssd1 vccd1 vccd1 _1356_ sky130_fd_sc_hd__or2_1
X_3524_ _3057_ vssd1 vssd1 vccd1 vccd1 _3058_ sky130_fd_sc_hd__buf_2
X_6243_ net45 _0258_ vssd1 vssd1 vccd1 vccd1 BitStream_buffer.BS_buffer\[24\] sky130_fd_sc_hd__dfxtp_2
X_3455_ BitStream_buffer.BS_buffer\[48\] _2986_ _2988_ BitStream_buffer.BS_buffer\[49\]
+ vssd1 vssd1 vccd1 vccd1 _2989_ sky130_fd_sc_hd__a22o_1
X_6099__30 clknet_1_0__leaf__2593_ vssd1 vssd1 vccd1 vccd1 net66 sky130_fd_sc_hd__inv_2
X_3386_ _2919_ vssd1 vssd1 vccd1 vccd1 _2920_ sky130_fd_sc_hd__buf_4
X_6174_ net136 _0189_ vssd1 vssd1 vccd1 vccd1 BitStream_buffer.BS_buffer\[102\] sky130_fd_sc_hd__dfxtp_1
X_5125_ BitStream_buffer.BS_buffer\[62\] _2985_ _2987_ BitStream_buffer.BS_buffer\[63\]
+ vssd1 vssd1 vccd1 vccd1 _1903_ sky130_fd_sc_hd__a22o_1
X_5056_ _2649_ BitStream_buffer.BS_buffer\[80\] vssd1 vssd1 vccd1 vccd1 _1834_ sky130_fd_sc_hd__nand2_1
XFILLER_0_46_70 vssd1 vssd1 vccd1 vccd1 sky130_fd_sc_hd__decap_4
X_4007_ _2625_ _2670_ _2631_ _2675_ vssd1 vssd1 vccd1 vccd1 _0795_ sky130_fd_sc_hd__o22ai_1
X_5958_ _2560_ _2572_ vssd1 vssd1 vccd1 vccd1 _2573_ sky130_fd_sc_hd__nand2_1
X_4909_ _0626_ _2954_ _0499_ _2958_ vssd1 vssd1 vccd1 vccd1 _1689_ sky130_fd_sc_hd__o22ai_1
X_5889_ _2504_ _2475_ vssd1 vssd1 vccd1 vccd1 _2507_ sky130_fd_sc_hd__nand2_1
XFILLER_0_62_289 vssd1 vssd1 vccd1 vccd1 sky130_ef_sc_hd__decap_12
XFILLER_0_30_197 vssd1 vssd1 vccd1 vccd1 sky130_fd_sc_hd__fill_2
XFILLER_0_26_29 vssd1 vssd1 vccd1 vccd1 sky130_fd_sc_hd__fill_1
XFILLER_0_85_337 vssd1 vssd1 vccd1 vccd1 sky130_ef_sc_hd__decap_12
XFILLER_0_53_267 vssd1 vssd1 vccd1 vccd1 sky130_fd_sc_hd__decap_4
XFILLER_0_41_429 vssd1 vssd1 vccd1 vccd1 sky130_fd_sc_hd__decap_4
XANTENNA_5 net9 vssd1 vssd1 vccd1 vccd1 sky130_fd_sc_hd__diode_2
XTAP_315 vssd1 vccd1 sky130_fd_sc_hd__tapvpwrvgnd_1
XTAP_304 vssd1 vccd1 sky130_fd_sc_hd__tapvpwrvgnd_1
XFILLER_0_67_69 vssd1 vssd1 vccd1 vccd1 sky130_ef_sc_hd__decap_12
XTAP_326 vssd1 vccd1 sky130_fd_sc_hd__tapvpwrvgnd_1
XTAP_337 vssd1 vccd1 sky130_fd_sc_hd__tapvpwrvgnd_1
XTAP_348 vssd1 vccd1 sky130_fd_sc_hd__tapvpwrvgnd_1
X_3240_ _2727_ _2741_ _2755_ _2773_ vssd1 vssd1 vccd1 vccd1 _2774_ sky130_fd_sc_hd__and4_1
XTAP_359 vssd1 vccd1 sky130_fd_sc_hd__tapvpwrvgnd_1
X_3171_ _2639_ _2663_ _2684_ _2704_ vssd1 vssd1 vccd1 vccd1 _2705_ sky130_fd_sc_hd__and4_1
XFILLER_0_83_57 vssd1 vssd1 vccd1 vccd1 sky130_ef_sc_hd__decap_12
X_5812_ _2322_ _2435_ _2348_ vssd1 vssd1 vccd1 vccd1 _2436_ sky130_fd_sc_hd__o21ai_1
XFILLER_0_29_220 vssd1 vssd1 vccd1 vccd1 sky130_fd_sc_hd__fill_1
X_5743_ _2329_ _2360_ vssd1 vssd1 vccd1 vccd1 _2368_ sky130_fd_sc_hd__nor2_1
X_5674_ _2121_ _2301_ _0675_ vssd1 vssd1 vccd1 vccd1 _0163_ sky130_fd_sc_hd__a21oi_1
X_4625_ BitStream_buffer.BS_buffer\[37\] _0379_ BitStream_buffer.BS_buffer\[38\] _0383_
+ _1407_ vssd1 vssd1 vccd1 vccd1 _1408_ sky130_fd_sc_hd__a221oi_1
XFILLER_0_32_418 vssd1 vssd1 vccd1 vccd1 sky130_fd_sc_hd__fill_2
X_4556_ _2870_ _2784_ vssd1 vssd1 vccd1 vccd1 _1339_ sky130_fd_sc_hd__or2_1
X_3507_ _3040_ vssd1 vssd1 vccd1 vccd1 _3041_ sky130_fd_sc_hd__buf_2
X_4487_ _0626_ _2941_ _0499_ _2945_ vssd1 vssd1 vccd1 vccd1 _1271_ sky130_fd_sc_hd__o22ai_1
XFILLER_0_40_484 vssd1 vssd1 vccd1 vccd1 sky130_ef_sc_hd__decap_12
X_6226_ net188 _0241_ vssd1 vssd1 vccd1 vccd1 BitStream_buffer.BS_buffer\[50\] sky130_fd_sc_hd__dfxtp_4
X_3438_ BitStream_buffer.BS_buffer\[51\] vssd1 vssd1 vccd1 vccd1 _2972_ sky130_fd_sc_hd__inv_2
XTAP_871 vssd1 vccd1 sky130_fd_sc_hd__tapvpwrvgnd_1
XTAP_860 vssd1 vccd1 sky130_fd_sc_hd__tapvpwrvgnd_1
X_6157_ net119 _0172_ vssd1 vssd1 vccd1 vccd1 BitStream_buffer.BS_buffer\[119\] sky130_fd_sc_hd__dfxtp_2
X_3369_ _2861_ _2874_ _2887_ _2902_ vssd1 vssd1 vccd1 vccd1 _2903_ sky130_fd_sc_hd__and4_1
XTAP_893 vssd1 vccd1 sky130_fd_sc_hd__tapvpwrvgnd_1
XTAP_882 vssd1 vccd1 sky130_fd_sc_hd__tapvpwrvgnd_1
X_5108_ _0604_ _2899_ vssd1 vssd1 vccd1 vccd1 _1886_ sky130_fd_sc_hd__or2_1
X_5039_ BitStream_buffer.BS_buffer\[37\] _0336_ BitStream_buffer.BS_buffer\[38\] _0340_
+ _1817_ vssd1 vssd1 vccd1 vccd1 _1818_ sky130_fd_sc_hd__a221oi_1
XFILLER_0_67_337 vssd1 vssd1 vccd1 vccd1 sky130_ef_sc_hd__decap_12
XFILLER_0_82_307 vssd1 vssd1 vccd1 vccd1 sky130_fd_sc_hd__fill_1
XFILLER_0_35_223 vssd1 vssd1 vccd1 vccd1 sky130_fd_sc_hd__fill_1
Xoutput20 net20 vssd1 vssd1 vccd1 vccd1 exp_golomb_decoding_output[0] sky130_fd_sc_hd__buf_12
Xoutput31 net31 vssd1 vssd1 vccd1 vccd1 reset_counter[0] sky130_fd_sc_hd__buf_12
XFILLER_0_31_495 vssd1 vssd1 vccd1 vccd1 sky130_fd_sc_hd__decap_8
X_6078__11 clknet_1_0__leaf__2591_ vssd1 vssd1 vccd1 vccd1 net47 sky130_fd_sc_hd__inv_2
XFILLER_0_37_17 vssd1 vssd1 vccd1 vccd1 sky130_fd_sc_hd__decap_3
X_5979__81 clknet_1_0__leaf__2582_ vssd1 vssd1 vccd1 vccd1 net117 sky130_fd_sc_hd__inv_2
XFILLER_0_85_167 vssd1 vssd1 vccd1 vccd1 sky130_fd_sc_hd__fill_1
XPHY_170 vssd1 vssd1 vccd1 vccd1 sky130_fd_sc_hd__decap_3
XFILLER_0_73_329 vssd1 vssd1 vccd1 vccd1 sky130_fd_sc_hd__decap_6
XFILLER_0_5_117 vssd1 vssd1 vccd1 vccd1 sky130_ef_sc_hd__decap_12
XFILLER_0_81_373 vssd1 vssd1 vccd1 vccd1 sky130_ef_sc_hd__decap_12
X_4410_ _0388_ _0357_ _0654_ _0360_ vssd1 vssd1 vccd1 vccd1 _1195_ sky130_fd_sc_hd__o22ai_1
XFILLER_0_41_248 vssd1 vssd1 vccd1 vccd1 sky130_fd_sc_hd__fill_2
X_5390_ _0405_ BitStream_buffer.pc\[5\] vssd1 vssd1 vccd1 vccd1 _2108_ sky130_fd_sc_hd__nand2_1
X_4341_ _2761_ BitStream_buffer.BS_buffer\[93\] vssd1 vssd1 vccd1 vccd1 _1126_ sky130_fd_sc_hd__nand2_1
X_4272_ _2953_ _2909_ _2956_ _2912_ vssd1 vssd1 vccd1 vccd1 _1058_ sky130_fd_sc_hd__o22ai_1
X_3223_ _2756_ vssd1 vssd1 vccd1 vccd1 _2757_ sky130_fd_sc_hd__inv_2
XTAP_178 vssd1 vccd1 sky130_fd_sc_hd__tapvpwrvgnd_1
XTAP_189 vssd1 vccd1 sky130_fd_sc_hd__tapvpwrvgnd_1
X_3154_ _2603_ _2687_ vssd1 vssd1 vccd1 vccd1 _2688_ sky130_fd_sc_hd__nor2_2
X_3085_ _2618_ BitStream_buffer.pc\[1\] vssd1 vssd1 vccd1 vccd1 _2619_ sky130_fd_sc_hd__nand2_4
XFILLER_0_64_307 vssd1 vssd1 vccd1 vccd1 sky130_fd_sc_hd__fill_1
XFILLER_0_76_189 vssd1 vssd1 vccd1 vccd1 sky130_fd_sc_hd__decap_6
XFILLER_0_57_381 vssd1 vssd1 vccd1 vccd1 sky130_fd_sc_hd__fill_1
XFILLER_0_9_467 vssd1 vssd1 vccd1 vccd1 sky130_ef_sc_hd__decap_12
X_3987_ _0345_ _0357_ _0657_ _0360_ vssd1 vssd1 vccd1 vccd1 _0776_ sky130_fd_sc_hd__o22ai_1
X_5726_ _2345_ vssd1 vssd1 vccd1 vccd1 _2351_ sky130_fd_sc_hd__inv_4
XFILLER_0_17_223 vssd1 vssd1 vccd1 vccd1 sky130_fd_sc_hd__fill_1
XFILLER_0_60_513 vssd1 vssd1 vccd1 vccd1 sky130_fd_sc_hd__decap_3
XFILLER_0_17_278 vssd1 vssd1 vccd1 vccd1 sky130_fd_sc_hd__fill_2
X_5657_ _2290_ vssd1 vssd1 vccd1 vccd1 _0169_ sky130_fd_sc_hd__clkbuf_1
XFILLER_0_32_248 vssd1 vssd1 vccd1 vccd1 sky130_fd_sc_hd__decap_4
X_4608_ _0523_ _3026_ _3053_ _3030_ vssd1 vssd1 vccd1 vccd1 _1391_ sky130_fd_sc_hd__o22ai_1
X_5588_ _2242_ _2240_ vssd1 vssd1 vccd1 vccd1 _2243_ sky130_fd_sc_hd__and2_1