* NGSPICE file created from egd_top_wrapper.ext - technology: sky130A

* Black-box entry subcircuit for sky130_fd_sc_hd__tapvpwrvgnd_1 abstract view
.subckt sky130_fd_sc_hd__tapvpwrvgnd_1 VGND VPWR
.ends

* Black-box entry subcircuit for sky130_fd_sc_hd__o21ai_1 abstract view
.subckt sky130_fd_sc_hd__o21ai_1 A1 A2 B1 VGND VNB VPB VPWR Y
.ends

* Black-box entry subcircuit for sky130_ef_sc_hd__decap_12 abstract view
.subckt sky130_ef_sc_hd__decap_12 VGND VNB VPB VPWR
.ends

* Black-box entry subcircuit for sky130_fd_sc_hd__decap_8 abstract view
.subckt sky130_fd_sc_hd__decap_8 VGND VNB VPB VPWR
.ends

* Black-box entry subcircuit for sky130_fd_sc_hd__nand2_1 abstract view
.subckt sky130_fd_sc_hd__nand2_1 A B VGND VNB VPB VPWR Y
.ends

* Black-box entry subcircuit for sky130_fd_sc_hd__fill_2 abstract view
.subckt sky130_fd_sc_hd__fill_2 VGND VNB VPB VPWR
.ends

* Black-box entry subcircuit for sky130_fd_sc_hd__decap_3 abstract view
.subckt sky130_fd_sc_hd__decap_3 VGND VNB VPB VPWR
.ends

* Black-box entry subcircuit for sky130_fd_sc_hd__fill_1 abstract view
.subckt sky130_fd_sc_hd__fill_1 VGND VNB VPB VPWR
.ends

* Black-box entry subcircuit for sky130_fd_sc_hd__clkbuf_1 abstract view
.subckt sky130_fd_sc_hd__clkbuf_1 A VGND VNB VPB VPWR X
.ends

* Black-box entry subcircuit for sky130_fd_sc_hd__mux2_1 abstract view
.subckt sky130_fd_sc_hd__mux2_1 A0 A1 S VGND VNB VPB VPWR X
.ends

* Black-box entry subcircuit for sky130_fd_sc_hd__decap_4 abstract view
.subckt sky130_fd_sc_hd__decap_4 VGND VNB VPB VPWR
.ends

* Black-box entry subcircuit for sky130_fd_sc_hd__a221oi_1 abstract view
.subckt sky130_fd_sc_hd__a221oi_1 A1 A2 B1 B2 C1 VGND VNB VPB VPWR Y
.ends

* Black-box entry subcircuit for sky130_fd_sc_hd__and4_1 abstract view
.subckt sky130_fd_sc_hd__and4_1 A B C D VGND VNB VPB VPWR X
.ends

* Black-box entry subcircuit for sky130_fd_sc_hd__decap_6 abstract view
.subckt sky130_fd_sc_hd__decap_6 VGND VNB VPB VPWR
.ends

* Black-box entry subcircuit for sky130_fd_sc_hd__buf_4 abstract view
.subckt sky130_fd_sc_hd__buf_4 A VGND VNB VPB VPWR X
.ends

* Black-box entry subcircuit for sky130_fd_sc_hd__o22ai_1 abstract view
.subckt sky130_fd_sc_hd__o22ai_1 A1 A2 B1 B2 VGND VNB VPB VPWR Y
.ends

* Black-box entry subcircuit for sky130_fd_sc_hd__a22o_1 abstract view
.subckt sky130_fd_sc_hd__a22o_1 A1 A2 B1 B2 VGND VNB VPB VPWR X
.ends

* Black-box entry subcircuit for sky130_fd_sc_hd__or2_1 abstract view
.subckt sky130_fd_sc_hd__or2_1 A B VGND VNB VPB VPWR X
.ends

* Black-box entry subcircuit for sky130_fd_sc_hd__nor2_1 abstract view
.subckt sky130_fd_sc_hd__nor2_1 A B VGND VNB VPB VPWR Y
.ends

* Black-box entry subcircuit for sky130_fd_sc_hd__inv_2 abstract view
.subckt sky130_fd_sc_hd__inv_2 A VGND VNB VPB VPWR Y
.ends

* Black-box entry subcircuit for sky130_fd_sc_hd__clkbuf_4 abstract view
.subckt sky130_fd_sc_hd__clkbuf_4 A VGND VNB VPB VPWR X
.ends

* Black-box entry subcircuit for sky130_fd_sc_hd__dfrtp_1 abstract view
.subckt sky130_fd_sc_hd__dfrtp_1 CLK D RESET_B VGND VNB VPB VPWR Q
.ends

* Black-box entry subcircuit for sky130_fd_sc_hd__a31oi_1 abstract view
.subckt sky130_fd_sc_hd__a31oi_1 A1 A2 A3 B1 VGND VNB VPB VPWR Y
.ends

* Black-box entry subcircuit for sky130_fd_sc_hd__and2_2 abstract view
.subckt sky130_fd_sc_hd__and2_2 A B VGND VNB VPB VPWR X
.ends

* Black-box entry subcircuit for sky130_fd_sc_hd__a221oi_2 abstract view
.subckt sky130_fd_sc_hd__a221oi_2 A1 A2 B1 B2 C1 VGND VNB VPB VPWR Y
.ends

* Black-box entry subcircuit for sky130_fd_sc_hd__nand2_2 abstract view
.subckt sky130_fd_sc_hd__nand2_2 A B VGND VNB VPB VPWR Y
.ends

* Black-box entry subcircuit for sky130_fd_sc_hd__dfrtp_4 abstract view
.subckt sky130_fd_sc_hd__dfrtp_4 CLK D RESET_B VGND VNB VPB VPWR Q
.ends

* Black-box entry subcircuit for sky130_fd_sc_hd__and2_1 abstract view
.subckt sky130_fd_sc_hd__and2_1 A B VGND VNB VPB VPWR X
.ends

* Black-box entry subcircuit for sky130_fd_sc_hd__nand3_1 abstract view
.subckt sky130_fd_sc_hd__nand3_1 A B C VGND VNB VPB VPWR Y
.ends

* Black-box entry subcircuit for sky130_fd_sc_hd__diode_2 abstract view
.subckt sky130_fd_sc_hd__diode_2 DIODE VGND VNB VPB VPWR
.ends

* Black-box entry subcircuit for sky130_fd_sc_hd__o211a_1 abstract view
.subckt sky130_fd_sc_hd__o211a_1 A1 A2 B1 C1 VGND VNB VPB VPWR X
.ends

* Black-box entry subcircuit for sky130_fd_sc_hd__buf_12 abstract view
.subckt sky130_fd_sc_hd__buf_12 A VGND VNB VPB VPWR X
.ends

* Black-box entry subcircuit for sky130_fd_sc_hd__a221oi_4 abstract view
.subckt sky130_fd_sc_hd__a221oi_4 A1 A2 B1 B2 C1 VGND VNB VPB VPWR Y
.ends

* Black-box entry subcircuit for sky130_fd_sc_hd__o221a_1 abstract view
.subckt sky130_fd_sc_hd__o221a_1 A1 A2 B1 B2 C1 VGND VNB VPB VPWR X
.ends

* Black-box entry subcircuit for sky130_fd_sc_hd__o2111ai_1 abstract view
.subckt sky130_fd_sc_hd__o2111ai_1 A1 A2 B1 C1 D1 VGND VNB VPB VPWR Y
.ends

* Black-box entry subcircuit for sky130_fd_sc_hd__clkbuf_8 abstract view
.subckt sky130_fd_sc_hd__clkbuf_8 A VGND VNB VPB VPWR X
.ends

* Black-box entry subcircuit for sky130_fd_sc_hd__clkbuf_2 abstract view
.subckt sky130_fd_sc_hd__clkbuf_2 A VGND VNB VPB VPWR X
.ends

* Black-box entry subcircuit for sky130_fd_sc_hd__o22ai_2 abstract view
.subckt sky130_fd_sc_hd__o22ai_2 A1 A2 B1 B2 VGND VNB VPB VPWR Y
.ends

* Black-box entry subcircuit for sky130_fd_sc_hd__o2111a_1 abstract view
.subckt sky130_fd_sc_hd__o2111a_1 A1 A2 B1 C1 D1 VGND VNB VPB VPWR X
.ends

* Black-box entry subcircuit for sky130_fd_sc_hd__dfrtp_2 abstract view
.subckt sky130_fd_sc_hd__dfrtp_2 CLK D RESET_B VGND VNB VPB VPWR Q
.ends

* Black-box entry subcircuit for sky130_fd_sc_hd__or2b_1 abstract view
.subckt sky130_fd_sc_hd__or2b_1 A B_N VGND VNB VPB VPWR X
.ends

* Black-box entry subcircuit for sky130_fd_sc_hd__nand3_4 abstract view
.subckt sky130_fd_sc_hd__nand3_4 A B C VGND VNB VPB VPWR Y
.ends

* Black-box entry subcircuit for sky130_fd_sc_hd__nor2_4 abstract view
.subckt sky130_fd_sc_hd__nor2_4 A B VGND VNB VPB VPWR Y
.ends

* Black-box entry subcircuit for sky130_fd_sc_hd__o21a_1 abstract view
.subckt sky130_fd_sc_hd__o21a_1 A1 A2 B1 VGND VNB VPB VPWR X
.ends

* Black-box entry subcircuit for sky130_fd_sc_hd__a211o_1 abstract view
.subckt sky130_fd_sc_hd__a211o_1 A1 A2 B1 C1 VGND VNB VPB VPWR X
.ends

* Black-box entry subcircuit for sky130_fd_sc_hd__a21oi_1 abstract view
.subckt sky130_fd_sc_hd__a21oi_1 A1 A2 B1 VGND VNB VPB VPWR Y
.ends

* Black-box entry subcircuit for sky130_fd_sc_hd__a22o_2 abstract view
.subckt sky130_fd_sc_hd__a22o_2 A1 A2 B1 B2 VGND VNB VPB VPWR X
.ends

* Black-box entry subcircuit for sky130_fd_sc_hd__buf_8 abstract view
.subckt sky130_fd_sc_hd__buf_8 A VGND VNB VPB VPWR X
.ends

* Black-box entry subcircuit for sky130_fd_sc_hd__or4b_1 abstract view
.subckt sky130_fd_sc_hd__or4b_1 A B C D_N VGND VNB VPB VPWR X
.ends

* Black-box entry subcircuit for sky130_fd_sc_hd__buf_1 abstract view
.subckt sky130_fd_sc_hd__buf_1 A VGND VNB VPB VPWR X
.ends

* Black-box entry subcircuit for sky130_fd_sc_hd__a21bo_1 abstract view
.subckt sky130_fd_sc_hd__a21bo_1 A1 A2 B1_N VGND VNB VPB VPWR X
.ends

* Black-box entry subcircuit for sky130_fd_sc_hd__and3_1 abstract view
.subckt sky130_fd_sc_hd__and3_1 A B C VGND VNB VPB VPWR X
.ends

* Black-box entry subcircuit for sky130_fd_sc_hd__a21o_1 abstract view
.subckt sky130_fd_sc_hd__a21o_1 A1 A2 B1 VGND VNB VPB VPWR X
.ends

* Black-box entry subcircuit for sky130_fd_sc_hd__nand2_4 abstract view
.subckt sky130_fd_sc_hd__nand2_4 A B VGND VNB VPB VPWR Y
.ends

* Black-box entry subcircuit for sky130_fd_sc_hd__buf_2 abstract view
.subckt sky130_fd_sc_hd__buf_2 A VGND VNB VPB VPWR X
.ends

* Black-box entry subcircuit for sky130_fd_sc_hd__dlymetal6s2s_1 abstract view
.subckt sky130_fd_sc_hd__dlymetal6s2s_1 A VGND VNB VPB VPWR X
.ends

* Black-box entry subcircuit for sky130_fd_sc_hd__nand3_2 abstract view
.subckt sky130_fd_sc_hd__nand3_2 A B C VGND VNB VPB VPWR Y
.ends

* Black-box entry subcircuit for sky130_fd_sc_hd__and4_2 abstract view
.subckt sky130_fd_sc_hd__and4_2 A B C D VGND VNB VPB VPWR X
.ends

* Black-box entry subcircuit for sky130_fd_sc_hd__o21ai_2 abstract view
.subckt sky130_fd_sc_hd__o21ai_2 A1 A2 B1 VGND VNB VPB VPWR Y
.ends

* Black-box entry subcircuit for sky130_fd_sc_hd__and3_2 abstract view
.subckt sky130_fd_sc_hd__and3_2 A B C VGND VNB VPB VPWR X
.ends

* Black-box entry subcircuit for sky130_fd_sc_hd__inv_4 abstract view
.subckt sky130_fd_sc_hd__inv_4 A VGND VNB VPB VPWR Y
.ends

* Black-box entry subcircuit for sky130_fd_sc_hd__and3_4 abstract view
.subckt sky130_fd_sc_hd__and3_4 A B C VGND VNB VPB VPWR X
.ends

* Black-box entry subcircuit for sky130_fd_sc_hd__nor3_4 abstract view
.subckt sky130_fd_sc_hd__nor3_4 A B C VGND VNB VPB VPWR Y
.ends

* Black-box entry subcircuit for sky130_fd_sc_hd__a21oi_2 abstract view
.subckt sky130_fd_sc_hd__a21oi_2 A1 A2 B1 VGND VNB VPB VPWR Y
.ends

* Black-box entry subcircuit for sky130_fd_sc_hd__buf_6 abstract view
.subckt sky130_fd_sc_hd__buf_6 A VGND VNB VPB VPWR X
.ends

* Black-box entry subcircuit for sky130_fd_sc_hd__nand2_8 abstract view
.subckt sky130_fd_sc_hd__nand2_8 A B VGND VNB VPB VPWR Y
.ends

* Black-box entry subcircuit for sky130_fd_sc_hd__a31o_1 abstract view
.subckt sky130_fd_sc_hd__a31o_1 A1 A2 A3 B1 VGND VNB VPB VPWR X
.ends

* Black-box entry subcircuit for sky130_fd_sc_hd__xnor2_4 abstract view
.subckt sky130_fd_sc_hd__xnor2_4 A B VGND VNB VPB VPWR Y
.ends

* Black-box entry subcircuit for sky130_fd_sc_hd__dfxtp_1 abstract view
.subckt sky130_fd_sc_hd__dfxtp_1 CLK D VGND VNB VPB VPWR Q
.ends

* Black-box entry subcircuit for sky130_fd_sc_hd__nor2_8 abstract view
.subckt sky130_fd_sc_hd__nor2_8 A B VGND VNB VPB VPWR Y
.ends

* Black-box entry subcircuit for sky130_fd_sc_hd__xor2_1 abstract view
.subckt sky130_fd_sc_hd__xor2_1 A B VGND VNB VPB VPWR X
.ends

* Black-box entry subcircuit for sky130_fd_sc_hd__and3b_1 abstract view
.subckt sky130_fd_sc_hd__and3b_1 A_N B C VGND VNB VPB VPWR X
.ends

* Black-box entry subcircuit for sky130_fd_sc_hd__or4b_4 abstract view
.subckt sky130_fd_sc_hd__or4b_4 A B C D_N VGND VNB VPB VPWR X
.ends

* Black-box entry subcircuit for sky130_fd_sc_hd__o21ai_4 abstract view
.subckt sky130_fd_sc_hd__o21ai_4 A1 A2 B1 VGND VNB VPB VPWR Y
.ends

* Black-box entry subcircuit for sky130_fd_sc_hd__clkinv_4 abstract view
.subckt sky130_fd_sc_hd__clkinv_4 A VGND VNB VPB VPWR Y
.ends

* Black-box entry subcircuit for sky130_fd_sc_hd__or2_2 abstract view
.subckt sky130_fd_sc_hd__or2_2 A B VGND VNB VPB VPWR X
.ends

* Black-box entry subcircuit for sky130_fd_sc_hd__or4_1 abstract view
.subckt sky130_fd_sc_hd__or4_1 A B C D VGND VNB VPB VPWR X
.ends

* Black-box entry subcircuit for sky130_fd_sc_hd__and2b_1 abstract view
.subckt sky130_fd_sc_hd__and2b_1 A_N B VGND VNB VPB VPWR X
.ends

* Black-box entry subcircuit for sky130_fd_sc_hd__nor3_1 abstract view
.subckt sky130_fd_sc_hd__nor3_1 A B C VGND VNB VPB VPWR Y
.ends

* Black-box entry subcircuit for sky130_fd_sc_hd__nor2_2 abstract view
.subckt sky130_fd_sc_hd__nor2_2 A B VGND VNB VPB VPWR Y
.ends

* Black-box entry subcircuit for sky130_fd_sc_hd__or3_1 abstract view
.subckt sky130_fd_sc_hd__or3_1 A B C VGND VNB VPB VPWR X
.ends

* Black-box entry subcircuit for sky130_fd_sc_hd__o22a_1 abstract view
.subckt sky130_fd_sc_hd__o22a_1 A1 A2 B1 B2 VGND VNB VPB VPWR X
.ends

* Black-box entry subcircuit for sky130_fd_sc_hd__nand2b_1 abstract view
.subckt sky130_fd_sc_hd__nand2b_1 A_N B VGND VNB VPB VPWR Y
.ends

* Black-box entry subcircuit for sky130_fd_sc_hd__o211ai_1 abstract view
.subckt sky130_fd_sc_hd__o211ai_1 A1 A2 B1 C1 VGND VNB VPB VPWR Y
.ends

* Black-box entry subcircuit for sky130_fd_sc_hd__a32o_1 abstract view
.subckt sky130_fd_sc_hd__a32o_1 A1 A2 A3 B1 B2 VGND VNB VPB VPWR X
.ends

* Black-box entry subcircuit for sky130_fd_sc_hd__nor3_2 abstract view
.subckt sky130_fd_sc_hd__nor3_2 A B C VGND VNB VPB VPWR Y
.ends

* Black-box entry subcircuit for sky130_fd_sc_hd__or2_4 abstract view
.subckt sky130_fd_sc_hd__or2_4 A B VGND VNB VPB VPWR X
.ends

* Black-box entry subcircuit for sky130_fd_sc_hd__o32a_1 abstract view
.subckt sky130_fd_sc_hd__o32a_1 A1 A2 A3 B1 B2 VGND VNB VPB VPWR X
.ends

* Black-box entry subcircuit for sky130_fd_sc_hd__xnor2_1 abstract view
.subckt sky130_fd_sc_hd__xnor2_1 A B VGND VNB VPB VPWR Y
.ends

* Black-box entry subcircuit for sky130_fd_sc_hd__clkbuf_16 abstract view
.subckt sky130_fd_sc_hd__clkbuf_16 A VGND VNB VPB VPWR X
.ends

* Black-box entry subcircuit for sky130_fd_sc_hd__o41a_1 abstract view
.subckt sky130_fd_sc_hd__o41a_1 A1 A2 A3 A4 B1 VGND VNB VPB VPWR X
.ends

* Black-box entry subcircuit for sky130_fd_sc_hd__xor2_4 abstract view
.subckt sky130_fd_sc_hd__xor2_4 A B VGND VNB VPB VPWR X
.ends

* Black-box entry subcircuit for sky130_fd_sc_hd__o21bai_4 abstract view
.subckt sky130_fd_sc_hd__o21bai_4 A1 A2 B1_N VGND VNB VPB VPWR Y
.ends

* Black-box entry subcircuit for sky130_fd_sc_hd__inv_6 abstract view
.subckt sky130_fd_sc_hd__inv_6 A VGND VNB VPB VPWR Y
.ends

* Black-box entry subcircuit for sky130_fd_sc_hd__a311o_1 abstract view
.subckt sky130_fd_sc_hd__a311o_1 A1 A2 A3 B1 C1 VGND VNB VPB VPWR X
.ends

* Black-box entry subcircuit for sky130_fd_sc_hd__o211ai_2 abstract view
.subckt sky130_fd_sc_hd__o211ai_2 A1 A2 B1 C1 VGND VNB VPB VPWR Y
.ends

* Black-box entry subcircuit for sky130_fd_sc_hd__xor2_2 abstract view
.subckt sky130_fd_sc_hd__xor2_2 A B VGND VNB VPB VPWR X
.ends

* Black-box entry subcircuit for sky130_fd_sc_hd__dfstp_1 abstract view
.subckt sky130_fd_sc_hd__dfstp_1 CLK D SET_B VGND VNB VPB VPWR Q
.ends

.subckt egd_top_wrapper la_data_in_47_32[0] la_data_in_47_32[10] la_data_in_47_32[11]
+ la_data_in_47_32[12] la_data_in_47_32[13] la_data_in_47_32[14] la_data_in_47_32[15]
+ la_data_in_47_32[1] la_data_in_47_32[2] la_data_in_47_32[3] la_data_in_47_32[4]
+ la_data_in_47_32[5] la_data_in_47_32[6] la_data_in_47_32[7] la_data_in_47_32[8]
+ la_data_in_47_32[9] la_data_in_49_48[0] la_data_in_49_48[1] la_data_out_15_8[0]
+ la_data_out_15_8[1] la_data_out_15_8[2] la_data_out_15_8[3] la_data_out_15_8[4]
+ la_data_out_15_8[5] la_data_out_15_8[6] la_data_out_15_8[7] la_data_out_18_16[0]
+ la_data_out_18_16[1] la_data_out_18_16[2] la_data_out_22_19[0] la_data_out_22_19[1]
+ la_data_out_22_19[2] la_data_out_22_19[3] vccd1 vssd1 wb_clk_i wb_rst_i
XTAP_188 vssd1 vccd1 sky130_fd_sc_hd__tapvpwrvgnd_1
XTAP_199 vssd1 vccd1 sky130_fd_sc_hd__tapvpwrvgnd_1
X_3155_ _2718_ _2719_ _2720_ vssd1 vssd1 vccd1 vccd1 _0321_ sky130_fd_sc_hd__o21ai_1
XFILLER_0_89_461 vssd1 vssd1 vccd1 vccd1 sky130_ef_sc_hd__decap_12
XFILLER_0_49_369 vssd1 vssd1 vccd1 vccd1 sky130_fd_sc_hd__decap_8
XFILLER_0_91_125 vssd1 vssd1 vccd1 vccd1 sky130_ef_sc_hd__decap_12
X_3988_ _2893_ _2804_ vssd1 vssd1 vccd1 vccd1 _0697_ sky130_fd_sc_hd__nand2_1
XFILLER_0_17_222 vssd1 vssd1 vccd1 vccd1 sky130_fd_sc_hd__fill_2
XFILLER_0_57_380 vssd1 vssd1 vccd1 vccd1 sky130_fd_sc_hd__decap_3
XFILLER_0_91_169 vssd1 vssd1 vccd1 vccd1 sky130_ef_sc_hd__decap_12
XFILLER_0_9_488 vssd1 vssd1 vccd1 vccd1 sky130_fd_sc_hd__fill_1
X_5727_ _2353_ vssd1 vssd1 vccd1 vccd1 _0213_ sky130_fd_sc_hd__clkbuf_1
XFILLER_0_45_542 vssd1 vssd1 vccd1 vccd1 sky130_ef_sc_hd__decap_12
XFILLER_0_17_266 vssd1 vssd1 vccd1 vccd1 sky130_fd_sc_hd__fill_2
X_5658_ net2 _0358_ _2311_ vssd1 vssd1 vccd1 vccd1 _2317_ sky130_fd_sc_hd__mux2_1
XFILLER_0_4_160 vssd1 vssd1 vccd1 vccd1 sky130_fd_sc_hd__fill_1
XFILLER_0_32_247 vssd1 vssd1 vccd1 vccd1 sky130_fd_sc_hd__decap_4
X_4609_ _0360_ _0479_ vssd1 vssd1 vccd1 vccd1 _1314_ sky130_fd_sc_hd__nand2_1
XFILLER_0_32_269 vssd1 vssd1 vccd1 vccd1 sky130_fd_sc_hd__decap_8
X_5589_ _2280_ vssd1 vssd1 vccd1 vccd1 _0278_ sky130_fd_sc_hd__clkbuf_1
XFILLER_0_55_306 vssd1 vssd1 vccd1 vccd1 sky130_fd_sc_hd__fill_1
XFILLER_0_67_188 vssd1 vssd1 vccd1 vccd1 sky130_fd_sc_hd__fill_2
XFILLER_0_82_169 vssd1 vssd1 vccd1 vccd1 sky130_ef_sc_hd__decap_12
XFILLER_0_82_158 vssd1 vssd1 vccd1 vccd1 sky130_fd_sc_hd__decap_8
XFILLER_0_70_309 vssd1 vssd1 vccd1 vccd1 sky130_fd_sc_hd__decap_8
XFILLER_0_36_531 vssd1 vssd1 vccd1 vccd1 sky130_fd_sc_hd__fill_1
XFILLER_0_63_383 vssd1 vssd1 vccd1 vccd1 sky130_fd_sc_hd__fill_1
XFILLER_0_51_501 vssd1 vssd1 vccd1 vccd1 sky130_fd_sc_hd__decap_3
XFILLER_0_23_225 vssd1 vssd1 vccd1 vccd1 sky130_ef_sc_hd__decap_12
XFILLER_0_48_15 vssd1 vssd1 vccd1 vccd1 sky130_ef_sc_hd__decap_12
XFILLER_0_3_39 vssd1 vssd1 vccd1 vccd1 sky130_fd_sc_hd__decap_4
X_4960_ _0791_ _0378_ _0439_ _0375_ _1661_ vssd1 vssd1 vccd1 vccd1 _1662_ sky130_fd_sc_hd__a221oi_1
XFILLER_0_86_475 vssd1 vssd1 vccd1 vccd1 sky130_fd_sc_hd__fill_1
X_4891_ _2920_ _0507_ _2923_ _0524_ _1592_ vssd1 vssd1 vccd1 vccd1 _1593_ sky130_fd_sc_hd__a221oi_1
X_3911_ _0605_ _0612_ _0617_ _0620_ vssd1 vssd1 vccd1 vccd1 _0621_ sky130_fd_sc_hd__and4_1
X_3842_ _2948_ _2806_ vssd1 vssd1 vccd1 vccd1 _0552_ sky130_fd_sc_hd__nand2_1
XFILLER_0_13_51 vssd1 vssd1 vccd1 vccd1 sky130_fd_sc_hd__decap_4
XFILLER_0_73_169 vssd1 vssd1 vccd1 vccd1 sky130_ef_sc_hd__decap_12
XFILLER_0_73_147 vssd1 vssd1 vccd1 vccd1 sky130_fd_sc_hd__decap_6
XFILLER_0_39_391 vssd1 vssd1 vccd1 vccd1 sky130_fd_sc_hd__fill_1
X_3773_ egd_top.BitStream_buffer.BS_buffer\[44\] vssd1 vssd1 vccd1 vccd1 _0484_ sky130_fd_sc_hd__buf_4
X_5512_ _2202_ _2204_ _2206_ _2208_ vssd1 vssd1 vccd1 vccd1 _2209_ sky130_fd_sc_hd__and4_1
XFILLER_0_42_501 vssd1 vssd1 vccd1 vccd1 sky130_fd_sc_hd__decap_3
XFILLER_0_54_350 vssd1 vssd1 vccd1 vccd1 sky130_fd_sc_hd__fill_1
XFILLER_0_89_55 vssd1 vssd1 vccd1 vccd1 sky130_fd_sc_hd__fill_1
X_5443_ _3079_ _3047_ _3049_ _3058_ _2140_ vssd1 vssd1 vccd1 vccd1 _2141_ sky130_fd_sc_hd__a221oi_1
X_5374_ _1128_ _0450_ _0571_ _0454_ vssd1 vssd1 vccd1 vccd1 _2072_ sky130_fd_sc_hd__o22ai_1
X_4325_ _3126_ egd_top.BitStream_buffer.BS_buffer\[56\] vssd1 vssd1 vccd1 vccd1 _1032_
+ sky130_fd_sc_hd__nand2_1
XFILLER_0_10_475 vssd1 vssd1 vccd1 vccd1 sky130_fd_sc_hd__fill_1
X_4256_ egd_top.BitStream_buffer.BS_buffer\[69\] _0401_ _0404_ egd_top.BitStream_buffer.BS_buffer\[72\]
+ vssd1 vssd1 vccd1 vccd1 _0964_ sky130_fd_sc_hd__a22o_1
XFILLER_0_38_81 vssd1 vssd1 vccd1 vccd1 sky130_fd_sc_hd__decap_3
X_3207_ _2718_ _2725_ net34 net32 vssd1 vssd1 vccd1 vccd1 _2768_ sky130_fd_sc_hd__and4_1
X_4187_ _0607_ _3141_ vssd1 vssd1 vccd1 vccd1 _0895_ sky130_fd_sc_hd__or2_1
XFILLER_0_77_442 vssd1 vssd1 vccd1 vccd1 sky130_fd_sc_hd__decap_6
XFILLER_0_92_401 vssd1 vssd1 vccd1 vccd1 sky130_ef_sc_hd__decap_12
XFILLER_0_77_464 vssd1 vssd1 vccd1 vccd1 sky130_ef_sc_hd__decap_12
XFILLER_0_64_114 vssd1 vssd1 vccd1 vccd1 sky130_ef_sc_hd__decap_12
XFILLER_0_37_328 vssd1 vssd1 vccd1 vccd1 sky130_fd_sc_hd__decap_8
XFILLER_0_92_445 vssd1 vssd1 vccd1 vccd1 sky130_ef_sc_hd__decap_12
XFILLER_0_64_158 vssd1 vssd1 vccd1 vccd1 sky130_ef_sc_hd__decap_12
XFILLER_0_18_553 vssd1 vssd1 vccd1 vccd1 sky130_fd_sc_hd__fill_1
XFILLER_0_52_309 vssd1 vssd1 vccd1 vccd1 sky130_ef_sc_hd__decap_12
XFILLER_0_92_489 vssd1 vssd1 vccd1 vccd1 sky130_ef_sc_hd__decap_12
XFILLER_0_60_353 vssd1 vssd1 vccd1 vccd1 sky130_fd_sc_hd__decap_8
XFILLER_0_18_29 vssd1 vssd1 vccd1 vccd1 sky130_ef_sc_hd__decap_12
XFILLER_0_87_217 vssd1 vssd1 vccd1 vccd1 sky130_fd_sc_hd__decap_6
XFILLER_0_68_475 vssd1 vssd1 vccd1 vccd1 sky130_fd_sc_hd__fill_1
XFILLER_0_28_328 vssd1 vssd1 vccd1 vccd1 sky130_ef_sc_hd__decap_12
XFILLER_0_50_27 vssd1 vssd1 vccd1 vccd1 sky130_fd_sc_hd__fill_1
XFILLER_0_11_239 vssd1 vssd1 vccd1 vccd1 sky130_ef_sc_hd__decap_12
X_5090_ _0383_ _0345_ _3029_ _0388_ _1790_ vssd1 vssd1 vccd1 vccd1 _1791_ sky130_fd_sc_hd__a221oi_1
X_4110_ _0817_ _0818_ vssd1 vssd1 vccd1 vccd1 _0819_ sky130_fd_sc_hd__nor2_1
XFILLER_0_75_57 vssd1 vssd1 vccd1 vccd1 sky130_ef_sc_hd__decap_12
X_4041_ _0745_ _3094_ _3096_ _0746_ _0749_ vssd1 vssd1 vccd1 vccd1 _0750_ sky130_fd_sc_hd__a221oi_1
XFILLER_0_78_239 vssd1 vssd1 vccd1 vccd1 sky130_ef_sc_hd__decap_12
X_5992_ egd_top.BitStream_buffer.BitStream_buffer_output\[12\] _2540_ vssd1 vssd1
+ vccd1 vccd1 _2571_ sky130_fd_sc_hd__or2_1
XFILLER_0_93_209 vssd1 vssd1 vccd1 vccd1 sky130_ef_sc_hd__decap_12
X_4943_ egd_top.BitStream_buffer.BS_buffer\[65\] vssd1 vssd1 vccd1 vccd1 _1645_ sky130_fd_sc_hd__inv_2
XFILLER_0_46_103 vssd1 vssd1 vccd1 vccd1 sky130_fd_sc_hd__fill_1
X_4874_ _2838_ _3147_ vssd1 vssd1 vccd1 vccd1 _1576_ sky130_fd_sc_hd__nand2_1
X_3825_ _2879_ _0507_ vssd1 vssd1 vccd1 vccd1 _0535_ sky130_fd_sc_hd__nand2_1
X_3756_ _0466_ vssd1 vssd1 vccd1 vccd1 _0467_ sky130_fd_sc_hd__clkbuf_4
X_6475_ clknet_4_1_0_wb_clk_i _0313_ _0145_ vssd1 vssd1 vccd1 vccd1 egd_top.BitStream_buffer.BS_buffer\[112\]
+ sky130_fd_sc_hd__dfrtp_1
XFILLER_0_42_353 vssd1 vssd1 vccd1 vccd1 sky130_fd_sc_hd__decap_4
X_5426_ _2986_ _0623_ vssd1 vssd1 vccd1 vccd1 _2124_ sky130_fd_sc_hd__nand2_1
XFILLER_0_71_3 vssd1 vssd1 vccd1 vccd1 sky130_ef_sc_hd__decap_12
X_3687_ _0383_ _0384_ _0385_ _0388_ _0397_ vssd1 vssd1 vccd1 vccd1 _0398_ sky130_fd_sc_hd__a221oi_1
XFILLER_0_30_537 vssd1 vssd1 vccd1 vccd1 sky130_ef_sc_hd__decap_12
XFILLER_0_10_250 vssd1 vssd1 vccd1 vccd1 sky130_fd_sc_hd__fill_2
X_5357_ _0746_ _0355_ _0357_ _0513_ _2054_ vssd1 vssd1 vccd1 vccd1 _2055_ sky130_fd_sc_hd__a221oi_1
X_4308_ _3052_ _3114_ vssd1 vssd1 vccd1 vccd1 _1015_ sky130_fd_sc_hd__nand2_1
X_5288_ _2810_ _2860_ _2874_ _1986_ vssd1 vssd1 vccd1 vccd1 _1987_ sky130_fd_sc_hd__a31oi_1
XFILLER_0_4_60 vssd1 vssd1 vccd1 vccd1 sky130_fd_sc_hd__fill_1
X_4239_ _0425_ egd_top.BitStream_buffer.BS_buffer\[83\] vssd1 vssd1 vccd1 vccd1 _0947_
+ sky130_fd_sc_hd__nand2_1
XFILLER_0_84_209 vssd1 vssd1 vccd1 vccd1 sky130_fd_sc_hd__fill_1
XFILLER_0_92_253 vssd1 vssd1 vccd1 vccd1 sky130_ef_sc_hd__decap_12
XFILLER_0_37_169 vssd1 vssd1 vccd1 vccd1 sky130_fd_sc_hd__decap_4
XFILLER_0_52_106 vssd1 vssd1 vccd1 vccd1 sky130_fd_sc_hd__decap_4
XFILLER_0_33_364 vssd1 vssd1 vccd1 vccd1 sky130_fd_sc_hd__fill_1
XFILLER_0_0_409 vssd1 vssd1 vccd1 vccd1 sky130_fd_sc_hd__decap_8
XFILLER_0_60_161 vssd1 vssd1 vccd1 vccd1 sky130_ef_sc_hd__decap_12
XFILLER_0_45_27 vssd1 vssd1 vccd1 vccd1 sky130_ef_sc_hd__decap_12
XFILLER_0_61_15 vssd1 vssd1 vccd1 vccd1 sky130_ef_sc_hd__decap_12
XFILLER_0_0_29 vssd1 vssd1 vccd1 vccd1 sky130_fd_sc_hd__decap_8
XFILLER_0_68_294 vssd1 vssd1 vccd1 vccd1 sky130_ef_sc_hd__decap_12
XFILLER_0_56_445 vssd1 vssd1 vccd1 vccd1 sky130_fd_sc_hd__decap_4
XFILLER_0_83_264 vssd1 vssd1 vccd1 vccd1 sky130_fd_sc_hd__fill_1
XFILLER_0_71_404 vssd1 vssd1 vccd1 vccd1 sky130_ef_sc_hd__decap_12
XFILLER_0_28_169 vssd1 vssd1 vccd1 vccd1 sky130_fd_sc_hd__fill_2
XFILLER_0_9_27 vssd1 vssd1 vccd1 vccd1 sky130_fd_sc_hd__decap_8
XFILLER_0_24_320 vssd1 vssd1 vccd1 vccd1 sky130_fd_sc_hd__fill_1
X_4590_ _1293_ _1294_ vssd1 vssd1 vccd1 vccd1 _1295_ sky130_fd_sc_hd__nor2_1
X_3610_ net37 _3026_ vssd1 vssd1 vccd1 vccd1 _3151_ sky130_fd_sc_hd__and2_2
XFILLER_0_3_225 vssd1 vssd1 vccd1 vccd1 sky130_fd_sc_hd__fill_2
XFILLER_0_24_331 vssd1 vssd1 vccd1 vccd1 sky130_fd_sc_hd__decap_8
X_3541_ _3081_ vssd1 vssd1 vccd1 vccd1 _3082_ sky130_fd_sc_hd__buf_4
XFILLER_0_12_515 vssd1 vssd1 vccd1 vccd1 sky130_fd_sc_hd__fill_2
XFILLER_0_10_41 vssd1 vssd1 vccd1 vccd1 sky130_ef_sc_hd__decap_12
X_3472_ egd_top.BitStream_buffer.BS_buffer\[28\] vssd1 vssd1 vccd1 vccd1 _3013_ sky130_fd_sc_hd__buf_4
XFILLER_0_10_85 vssd1 vssd1 vccd1 vccd1 sky130_ef_sc_hd__decap_12
X_6260_ _2713_ vssd1 vssd1 vccd1 vccd1 _0102_ sky130_fd_sc_hd__inv_2
X_5211_ _2987_ _0930_ _3005_ _0931_ _1910_ vssd1 vssd1 vccd1 vccd1 _1911_ sky130_fd_sc_hd__a221oi_2
X_6191_ _2708_ vssd1 vssd1 vccd1 vccd1 _0038_ sky130_fd_sc_hd__inv_2
X_5142_ _2996_ _2908_ vssd1 vssd1 vccd1 vccd1 _1842_ sky130_fd_sc_hd__nand2_1
XFILLER_0_19_72 vssd1 vssd1 vccd1 vccd1 sky130_fd_sc_hd__fill_1
X_5073_ _0342_ _0922_ _1043_ _0923_ vssd1 vssd1 vccd1 vccd1 _1774_ sky130_fd_sc_hd__o22ai_1
X_4024_ _3051_ _3058_ vssd1 vssd1 vccd1 vccd1 _0733_ sky130_fd_sc_hd__nand2_1
XFILLER_0_35_60 vssd1 vssd1 vccd1 vccd1 sky130_ef_sc_hd__decap_12
X_5975_ _2554_ _2749_ vssd1 vssd1 vccd1 vccd1 _2555_ sky130_fd_sc_hd__nand2_2
XFILLER_0_47_412 vssd1 vssd1 vccd1 vccd1 sky130_fd_sc_hd__decap_4
X_4926_ _3100_ _0410_ vssd1 vssd1 vccd1 vccd1 _1628_ sky130_fd_sc_hd__nand2_1
XFILLER_0_74_253 vssd1 vssd1 vccd1 vccd1 sky130_fd_sc_hd__decap_6
XFILLER_0_19_158 vssd1 vssd1 vccd1 vccd1 sky130_fd_sc_hd__decap_8
XFILLER_0_19_169 vssd1 vssd1 vccd1 vccd1 sky130_fd_sc_hd__decap_8
XFILLER_0_47_467 vssd1 vssd1 vccd1 vccd1 sky130_fd_sc_hd__decap_6
X_4857_ _1559_ _0464_ _0938_ _0467_ vssd1 vssd1 vccd1 vccd1 _1560_ sky130_fd_sc_hd__o22ai_1
XFILLER_0_74_286 vssd1 vssd1 vccd1 vccd1 sky130_fd_sc_hd__decap_3
XFILLER_0_7_553 vssd1 vssd1 vccd1 vccd1 sky130_fd_sc_hd__fill_1
X_3808_ _0517_ egd_top.BitStream_buffer.BS_buffer\[126\] _0518_ egd_top.BitStream_buffer.BS_buffer\[127\]
+ vssd1 vssd1 vccd1 vccd1 _0519_ sky130_fd_sc_hd__a22o_1
X_4788_ egd_top.BitStream_buffer.BS_buffer\[40\] vssd1 vssd1 vccd1 vccd1 _1491_ sky130_fd_sc_hd__inv_2
X_3739_ _0449_ vssd1 vssd1 vccd1 vccd1 _0450_ sky130_fd_sc_hd__clkbuf_4
XFILLER_0_15_375 vssd1 vssd1 vccd1 vccd1 sky130_ef_sc_hd__decap_12
X_6458_ clknet_4_7_0_wb_clk_i _0296_ _0128_ vssd1 vssd1 vccd1 vccd1 egd_top.BitStream_buffer.BitStream_buffer_output\[14\]
+ sky130_fd_sc_hd__dfrtp_1
X_5409_ _2885_ _2796_ _2888_ _3078_ _2106_ vssd1 vssd1 vccd1 vccd1 _2107_ sky130_fd_sc_hd__a221oi_1
X_6389_ clknet_4_14_0_wb_clk_i _0227_ _0059_ vssd1 vssd1 vccd1 vccd1 egd_top.BitStream_buffer.BS_buffer\[55\]
+ sky130_fd_sc_hd__dfrtp_4
XFILLER_0_85_529 vssd1 vssd1 vccd1 vccd1 sky130_ef_sc_hd__decap_12
XFILLER_0_38_445 vssd1 vssd1 vccd1 vccd1 sky130_fd_sc_hd__decap_8
XFILLER_0_25_128 vssd1 vssd1 vccd1 vccd1 sky130_fd_sc_hd__decap_3
XFILLER_0_53_437 vssd1 vssd1 vccd1 vccd1 sky130_fd_sc_hd__decap_8
XFILLER_0_80_245 vssd1 vssd1 vccd1 vccd1 sky130_fd_sc_hd__fill_2
XFILLER_0_80_278 vssd1 vssd1 vccd1 vccd1 sky130_ef_sc_hd__decap_12
XFILLER_0_21_323 vssd1 vssd1 vccd1 vccd1 sky130_fd_sc_hd__decap_8
XTAP_507 vssd1 vccd1 sky130_fd_sc_hd__tapvpwrvgnd_1
XTAP_518 vssd1 vccd1 sky130_fd_sc_hd__tapvpwrvgnd_1
XTAP_529 vssd1 vccd1 sky130_fd_sc_hd__tapvpwrvgnd_1
XFILLER_0_56_15 vssd1 vssd1 vccd1 vccd1 sky130_ef_sc_hd__decap_12
XFILLER_0_88_301 vssd1 vssd1 vccd1 vccd1 sky130_fd_sc_hd__decap_6
XFILLER_0_88_345 vssd1 vssd1 vccd1 vccd1 sky130_ef_sc_hd__decap_12
XFILLER_0_48_209 vssd1 vssd1 vccd1 vccd1 sky130_ef_sc_hd__decap_12
XFILLER_0_88_389 vssd1 vssd1 vccd1 vccd1 sky130_ef_sc_hd__decap_12
XFILLER_0_29_401 vssd1 vssd1 vccd1 vccd1 sky130_fd_sc_hd__fill_1
X_5760_ _2372_ vssd1 vssd1 vccd1 vccd1 _0199_ sky130_fd_sc_hd__clkbuf_1
X_5691_ _2334_ vssd1 vssd1 vccd1 vccd1 _0230_ sky130_fd_sc_hd__clkbuf_1
XFILLER_0_29_489 vssd1 vssd1 vccd1 vccd1 sky130_ef_sc_hd__decap_12
X_4711_ _0917_ egd_top.BitStream_buffer.BS_buffer\[119\] _0918_ _2796_ vssd1 vssd1
+ vccd1 vccd1 _1415_ sky130_fd_sc_hd__a22o_1
XFILLER_0_56_242 vssd1 vssd1 vccd1 vccd1 sky130_fd_sc_hd__fill_2
XFILLER_0_56_253 vssd1 vssd1 vccd1 vccd1 sky130_fd_sc_hd__decap_4
X_4642_ _2885_ _2777_ _2888_ _2806_ _1345_ vssd1 vssd1 vccd1 vccd1 _1346_ sky130_fd_sc_hd__a221oi_1
XFILLER_0_71_201 vssd1 vssd1 vccd1 vccd1 sky130_ef_sc_hd__decap_12
XFILLER_0_16_139 vssd1 vssd1 vccd1 vccd1 sky130_fd_sc_hd__fill_1
XFILLER_0_4_523 vssd1 vssd1 vccd1 vccd1 sky130_fd_sc_hd__decap_4
XFILLER_0_71_278 vssd1 vssd1 vccd1 vccd1 sky130_fd_sc_hd__fill_2
XFILLER_0_24_172 vssd1 vssd1 vccd1 vccd1 sky130_fd_sc_hd__fill_2
X_4573_ _0741_ _3141_ vssd1 vssd1 vccd1 vccd1 _1278_ sky130_fd_sc_hd__or2_1
X_6312_ _2717_ vssd1 vssd1 vccd1 vccd1 _0150_ sky130_fd_sc_hd__inv_2
XFILLER_0_12_345 vssd1 vssd1 vccd1 vccd1 sky130_ef_sc_hd__decap_12
X_3524_ net38 _3026_ vssd1 vssd1 vccd1 vccd1 _3065_ sky130_fd_sc_hd__and2_1
XFILLER_0_52_492 vssd1 vssd1 vccd1 vccd1 sky130_ef_sc_hd__decap_12
X_6243_ _2712_ vssd1 vssd1 vccd1 vccd1 _0086_ sky130_fd_sc_hd__inv_2
X_3455_ net35 _2973_ vssd1 vssd1 vccd1 vccd1 _2996_ sky130_fd_sc_hd__and2_1
X_3386_ _2914_ _2860_ vssd1 vssd1 vccd1 vccd1 _2927_ sky130_fd_sc_hd__and2_1
X_6174_ _2705_ vssd1 vssd1 vccd1 vccd1 _0023_ sky130_fd_sc_hd__inv_2
X_5125_ _2924_ _3078_ vssd1 vssd1 vccd1 vccd1 _1825_ sky130_fd_sc_hd__nand2_1
XFILLER_0_34_3 vssd1 vssd1 vccd1 vccd1 sky130_ef_sc_hd__decap_12
X_5056_ _3143_ _0475_ vssd1 vssd1 vccd1 vccd1 _1757_ sky130_fd_sc_hd__nand2_1
X_4007_ _0702_ _0706_ _0711_ _0715_ vssd1 vssd1 vccd1 vccd1 _0716_ sky130_fd_sc_hd__and4_1
XFILLER_0_67_529 vssd1 vssd1 vccd1 vccd1 sky130_fd_sc_hd__decap_6
X_5958_ _2478_ _2537_ _2495_ vssd1 vssd1 vccd1 vccd1 _2538_ sky130_fd_sc_hd__nand3_1
XFILLER_0_47_220 vssd1 vssd1 vccd1 vccd1 sky130_fd_sc_hd__decap_4
X_4909_ _0384_ _3008_ _3050_ _3012_ _1610_ vssd1 vssd1 vccd1 vccd1 _1611_ sky130_fd_sc_hd__a221oi_1
X_5889_ _2469_ vssd1 vssd1 vccd1 vccd1 _2470_ sky130_fd_sc_hd__inv_2
XFILLER_0_22_109 vssd1 vssd1 vccd1 vccd1 sky130_ef_sc_hd__decap_12
XFILLER_0_30_164 vssd1 vssd1 vccd1 vccd1 sky130_ef_sc_hd__decap_12
XFILLER_0_85_304 vssd1 vssd1 vccd1 vccd1 sky130_fd_sc_hd__fill_1
XFILLER_0_85_337 vssd1 vssd1 vccd1 vccd1 sky130_ef_sc_hd__decap_12
XFILLER_0_38_253 vssd1 vssd1 vccd1 vccd1 sky130_fd_sc_hd__decap_8
XFILLER_0_53_212 vssd1 vssd1 vccd1 vccd1 sky130_ef_sc_hd__decap_12
XANTENNA_5 _0889_ vssd1 vssd1 vccd1 vccd1 sky130_fd_sc_hd__diode_2
XFILLER_0_21_142 vssd1 vssd1 vccd1 vccd1 sky130_fd_sc_hd__fill_2
XTAP_315 vssd1 vccd1 sky130_fd_sc_hd__tapvpwrvgnd_1
XTAP_304 vssd1 vccd1 sky130_fd_sc_hd__tapvpwrvgnd_1
XTAP_337 vssd1 vccd1 sky130_fd_sc_hd__tapvpwrvgnd_1
XTAP_326 vssd1 vccd1 sky130_fd_sc_hd__tapvpwrvgnd_1
XTAP_348 vssd1 vccd1 sky130_fd_sc_hd__tapvpwrvgnd_1
X_3240_ net3 _2792_ _2784_ vssd1 vssd1 vccd1 vccd1 _2793_ sky130_fd_sc_hd__mux2_1
X_3171_ _2728_ _2729_ _2731_ _2732_ vssd1 vssd1 vccd1 vccd1 _2733_ sky130_fd_sc_hd__o211a_1
XTAP_359 vssd1 vccd1 sky130_fd_sc_hd__tapvpwrvgnd_1
XFILLER_0_83_57 vssd1 vssd1 vccd1 vccd1 sky130_ef_sc_hd__decap_12
XFILLER_0_16_51 vssd1 vssd1 vccd1 vccd1 sky130_ef_sc_hd__decap_12
XFILLER_0_88_153 vssd1 vssd1 vccd1 vccd1 sky130_ef_sc_hd__decap_12
XFILLER_0_76_304 vssd1 vssd1 vccd1 vccd1 sky130_fd_sc_hd__decap_4
XFILLER_0_49_518 vssd1 vssd1 vccd1 vccd1 sky130_fd_sc_hd__fill_2
XFILLER_0_88_197 vssd1 vssd1 vccd1 vccd1 sky130_ef_sc_hd__decap_12