* NGSPICE file created from egd_top_wrapper.ext - technology: sky130A

* Black-box entry subcircuit for sky130_fd_sc_hd__tapvpwrvgnd_1 abstract view
.subckt sky130_fd_sc_hd__tapvpwrvgnd_1 VGND VPWR
.ends

* Black-box entry subcircuit for sky130_ef_sc_hd__decap_12 abstract view
.subckt sky130_ef_sc_hd__decap_12 VGND VNB VPB VPWR
.ends

* Black-box entry subcircuit for sky130_fd_sc_hd__fill_2 abstract view
.subckt sky130_fd_sc_hd__fill_2 VGND VNB VPB VPWR
.ends

* Black-box entry subcircuit for sky130_fd_sc_hd__decap_4 abstract view
.subckt sky130_fd_sc_hd__decap_4 VGND VNB VPB VPWR
.ends

* Black-box entry subcircuit for sky130_fd_sc_hd__o2111a_1 abstract view
.subckt sky130_fd_sc_hd__o2111a_1 A1 A2 B1 C1 D1 VGND VNB VPB VPWR X
.ends

* Black-box entry subcircuit for sky130_fd_sc_hd__fill_1 abstract view
.subckt sky130_fd_sc_hd__fill_1 VGND VNB VPB VPWR
.ends

* Black-box entry subcircuit for sky130_fd_sc_hd__decap_8 abstract view
.subckt sky130_fd_sc_hd__decap_8 VGND VNB VPB VPWR
.ends

* Black-box entry subcircuit for sky130_fd_sc_hd__mux2_1 abstract view
.subckt sky130_fd_sc_hd__mux2_1 A0 A1 S VGND VNB VPB VPWR X
.ends

* Black-box entry subcircuit for sky130_fd_sc_hd__clkbuf_1 abstract view
.subckt sky130_fd_sc_hd__clkbuf_1 A VGND VNB VPB VPWR X
.ends

* Black-box entry subcircuit for sky130_fd_sc_hd__or2b_1 abstract view
.subckt sky130_fd_sc_hd__or2b_1 A B_N VGND VNB VPB VPWR X
.ends

* Black-box entry subcircuit for sky130_fd_sc_hd__inv_2 abstract view
.subckt sky130_fd_sc_hd__inv_2 A VGND VNB VPB VPWR Y
.ends

* Black-box entry subcircuit for sky130_fd_sc_hd__o22ai_1 abstract view
.subckt sky130_fd_sc_hd__o22ai_1 A1 A2 B1 B2 VGND VNB VPB VPWR Y
.ends

* Black-box entry subcircuit for sky130_fd_sc_hd__a221oi_1 abstract view
.subckt sky130_fd_sc_hd__a221oi_1 A1 A2 B1 B2 C1 VGND VNB VPB VPWR Y
.ends

* Black-box entry subcircuit for sky130_fd_sc_hd__decap_3 abstract view
.subckt sky130_fd_sc_hd__decap_3 VGND VNB VPB VPWR
.ends

* Black-box entry subcircuit for sky130_fd_sc_hd__nand2_1 abstract view
.subckt sky130_fd_sc_hd__nand2_1 A B VGND VNB VPB VPWR Y
.ends

* Black-box entry subcircuit for sky130_fd_sc_hd__dfrtp_1 abstract view
.subckt sky130_fd_sc_hd__dfrtp_1 CLK D RESET_B VGND VNB VPB VPWR Q
.ends

* Black-box entry subcircuit for sky130_fd_sc_hd__and3_1 abstract view
.subckt sky130_fd_sc_hd__and3_1 A B C VGND VNB VPB VPWR X
.ends

* Black-box entry subcircuit for sky130_fd_sc_hd__decap_6 abstract view
.subckt sky130_fd_sc_hd__decap_6 VGND VNB VPB VPWR
.ends

* Black-box entry subcircuit for sky130_fd_sc_hd__clkbuf_16 abstract view
.subckt sky130_fd_sc_hd__clkbuf_16 A VGND VNB VPB VPWR X
.ends

* Black-box entry subcircuit for sky130_fd_sc_hd__clkbuf_4 abstract view
.subckt sky130_fd_sc_hd__clkbuf_4 A VGND VNB VPB VPWR X
.ends

* Black-box entry subcircuit for sky130_fd_sc_hd__a22o_1 abstract view
.subckt sky130_fd_sc_hd__a22o_1 A1 A2 B1 B2 VGND VNB VPB VPWR X
.ends

* Black-box entry subcircuit for sky130_fd_sc_hd__and4_1 abstract view
.subckt sky130_fd_sc_hd__and4_1 A B C D VGND VNB VPB VPWR X
.ends

* Black-box entry subcircuit for sky130_fd_sc_hd__dfrtp_4 abstract view
.subckt sky130_fd_sc_hd__dfrtp_4 CLK D RESET_B VGND VNB VPB VPWR Q
.ends

* Black-box entry subcircuit for sky130_fd_sc_hd__and4_2 abstract view
.subckt sky130_fd_sc_hd__and4_2 A B C D VGND VNB VPB VPWR X
.ends

* Black-box entry subcircuit for sky130_fd_sc_hd__buf_4 abstract view
.subckt sky130_fd_sc_hd__buf_4 A VGND VNB VPB VPWR X
.ends

* Black-box entry subcircuit for sky130_fd_sc_hd__a221oi_2 abstract view
.subckt sky130_fd_sc_hd__a221oi_2 A1 A2 B1 B2 C1 VGND VNB VPB VPWR Y
.ends

* Black-box entry subcircuit for sky130_fd_sc_hd__clkbuf_8 abstract view
.subckt sky130_fd_sc_hd__clkbuf_8 A VGND VNB VPB VPWR X
.ends

* Black-box entry subcircuit for sky130_fd_sc_hd__o21ai_1 abstract view
.subckt sky130_fd_sc_hd__o21ai_1 A1 A2 B1 VGND VNB VPB VPWR Y
.ends

* Black-box entry subcircuit for sky130_fd_sc_hd__and2_1 abstract view
.subckt sky130_fd_sc_hd__and2_1 A B VGND VNB VPB VPWR X
.ends

* Black-box entry subcircuit for sky130_fd_sc_hd__buf_6 abstract view
.subckt sky130_fd_sc_hd__buf_6 A VGND VNB VPB VPWR X
.ends

* Black-box entry subcircuit for sky130_fd_sc_hd__nand2_2 abstract view
.subckt sky130_fd_sc_hd__nand2_2 A B VGND VNB VPB VPWR Y
.ends

* Black-box entry subcircuit for sky130_fd_sc_hd__diode_2 abstract view
.subckt sky130_fd_sc_hd__diode_2 DIODE VGND VNB VPB VPWR
.ends

* Black-box entry subcircuit for sky130_fd_sc_hd__nor2_1 abstract view
.subckt sky130_fd_sc_hd__nor2_1 A B VGND VNB VPB VPWR Y
.ends

* Black-box entry subcircuit for sky130_fd_sc_hd__or2_1 abstract view
.subckt sky130_fd_sc_hd__or2_1 A B VGND VNB VPB VPWR X
.ends

* Black-box entry subcircuit for sky130_fd_sc_hd__buf_12 abstract view
.subckt sky130_fd_sc_hd__buf_12 A VGND VNB VPB VPWR X
.ends

* Black-box entry subcircuit for sky130_fd_sc_hd__clkinv_4 abstract view
.subckt sky130_fd_sc_hd__clkinv_4 A VGND VNB VPB VPWR Y
.ends

* Black-box entry subcircuit for sky130_fd_sc_hd__o221a_1 abstract view
.subckt sky130_fd_sc_hd__o221a_1 A1 A2 B1 B2 C1 VGND VNB VPB VPWR X
.ends

* Black-box entry subcircuit for sky130_fd_sc_hd__buf_8 abstract view
.subckt sky130_fd_sc_hd__buf_8 A VGND VNB VPB VPWR X
.ends

* Black-box entry subcircuit for sky130_fd_sc_hd__dfrtp_2 abstract view
.subckt sky130_fd_sc_hd__dfrtp_2 CLK D RESET_B VGND VNB VPB VPWR Q
.ends

* Black-box entry subcircuit for sky130_fd_sc_hd__buf_1 abstract view
.subckt sky130_fd_sc_hd__buf_1 A VGND VNB VPB VPWR X
.ends

* Black-box entry subcircuit for sky130_fd_sc_hd__o31ai_1 abstract view
.subckt sky130_fd_sc_hd__o31ai_1 A1 A2 A3 B1 VGND VNB VPB VPWR Y
.ends

* Black-box entry subcircuit for sky130_fd_sc_hd__a31oi_1 abstract view
.subckt sky130_fd_sc_hd__a31oi_1 A1 A2 A3 B1 VGND VNB VPB VPWR Y
.ends

* Black-box entry subcircuit for sky130_fd_sc_hd__buf_2 abstract view
.subckt sky130_fd_sc_hd__buf_2 A VGND VNB VPB VPWR X
.ends

* Black-box entry subcircuit for sky130_fd_sc_hd__nor2_2 abstract view
.subckt sky130_fd_sc_hd__nor2_2 A B VGND VNB VPB VPWR Y
.ends

* Black-box entry subcircuit for sky130_fd_sc_hd__nand3_1 abstract view
.subckt sky130_fd_sc_hd__nand3_1 A B C VGND VNB VPB VPWR Y
.ends

* Black-box entry subcircuit for sky130_fd_sc_hd__o211ai_1 abstract view
.subckt sky130_fd_sc_hd__o211ai_1 A1 A2 B1 C1 VGND VNB VPB VPWR Y
.ends

* Black-box entry subcircuit for sky130_fd_sc_hd__a211o_1 abstract view
.subckt sky130_fd_sc_hd__a211o_1 A1 A2 B1 C1 VGND VNB VPB VPWR X
.ends

* Black-box entry subcircuit for sky130_fd_sc_hd__or4_1 abstract view
.subckt sky130_fd_sc_hd__or4_1 A B C D VGND VNB VPB VPWR X
.ends

* Black-box entry subcircuit for sky130_fd_sc_hd__o21a_1 abstract view
.subckt sky130_fd_sc_hd__o21a_1 A1 A2 B1 VGND VNB VPB VPWR X
.ends

* Black-box entry subcircuit for sky130_fd_sc_hd__or3_1 abstract view
.subckt sky130_fd_sc_hd__or3_1 A B C VGND VNB VPB VPWR X
.ends

* Black-box entry subcircuit for sky130_fd_sc_hd__o21bai_1 abstract view
.subckt sky130_fd_sc_hd__o21bai_1 A1 A2 B1_N VGND VNB VPB VPWR Y
.ends

* Black-box entry subcircuit for sky130_fd_sc_hd__o41a_1 abstract view
.subckt sky130_fd_sc_hd__o41a_1 A1 A2 A3 A4 B1 VGND VNB VPB VPWR X
.ends

* Black-box entry subcircuit for sky130_fd_sc_hd__and2_2 abstract view
.subckt sky130_fd_sc_hd__and2_2 A B VGND VNB VPB VPWR X
.ends

* Black-box entry subcircuit for sky130_fd_sc_hd__a21oi_1 abstract view
.subckt sky130_fd_sc_hd__a21oi_1 A1 A2 B1 VGND VNB VPB VPWR Y
.ends

* Black-box entry subcircuit for sky130_fd_sc_hd__a21bo_1 abstract view
.subckt sky130_fd_sc_hd__a21bo_1 A1 A2 B1_N VGND VNB VPB VPWR X
.ends

* Black-box entry subcircuit for sky130_fd_sc_hd__clkbuf_2 abstract view
.subckt sky130_fd_sc_hd__clkbuf_2 A VGND VNB VPB VPWR X
.ends

* Black-box entry subcircuit for sky130_fd_sc_hd__xnor2_1 abstract view
.subckt sky130_fd_sc_hd__xnor2_1 A B VGND VNB VPB VPWR Y
.ends

* Black-box entry subcircuit for sky130_fd_sc_hd__a31o_1 abstract view
.subckt sky130_fd_sc_hd__a31o_1 A1 A2 A3 B1 VGND VNB VPB VPWR X
.ends

* Black-box entry subcircuit for sky130_fd_sc_hd__nor2_4 abstract view
.subckt sky130_fd_sc_hd__nor2_4 A B VGND VNB VPB VPWR Y
.ends

* Black-box entry subcircuit for sky130_fd_sc_hd__and3_2 abstract view
.subckt sky130_fd_sc_hd__and3_2 A B C VGND VNB VPB VPWR X
.ends

* Black-box entry subcircuit for sky130_fd_sc_hd__nand2_4 abstract view
.subckt sky130_fd_sc_hd__nand2_4 A B VGND VNB VPB VPWR Y
.ends

* Black-box entry subcircuit for sky130_fd_sc_hd__nand3_2 abstract view
.subckt sky130_fd_sc_hd__nand3_2 A B C VGND VNB VPB VPWR Y
.ends

* Black-box entry subcircuit for sky130_fd_sc_hd__o21ai_2 abstract view
.subckt sky130_fd_sc_hd__o21ai_2 A1 A2 B1 VGND VNB VPB VPWR Y
.ends

* Black-box entry subcircuit for sky130_fd_sc_hd__a21oi_2 abstract view
.subckt sky130_fd_sc_hd__a21oi_2 A1 A2 B1 VGND VNB VPB VPWR Y
.ends

* Black-box entry subcircuit for sky130_fd_sc_hd__a21bo_2 abstract view
.subckt sky130_fd_sc_hd__a21bo_2 A1 A2 B1_N VGND VNB VPB VPWR X
.ends

* Black-box entry subcircuit for sky130_fd_sc_hd__a221oi_4 abstract view
.subckt sky130_fd_sc_hd__a221oi_4 A1 A2 B1 B2 C1 VGND VNB VPB VPWR Y
.ends

* Black-box entry subcircuit for sky130_fd_sc_hd__o22ai_2 abstract view
.subckt sky130_fd_sc_hd__o22ai_2 A1 A2 B1 B2 VGND VNB VPB VPWR Y
.ends

* Black-box entry subcircuit for sky130_fd_sc_hd__dlymetal6s2s_1 abstract view
.subckt sky130_fd_sc_hd__dlymetal6s2s_1 A VGND VNB VPB VPWR X
.ends

* Black-box entry subcircuit for sky130_fd_sc_hd__inv_6 abstract view
.subckt sky130_fd_sc_hd__inv_6 A VGND VNB VPB VPWR Y
.ends

* Black-box entry subcircuit for sky130_fd_sc_hd__o21ai_4 abstract view
.subckt sky130_fd_sc_hd__o21ai_4 A1 A2 B1 VGND VNB VPB VPWR Y
.ends

* Black-box entry subcircuit for sky130_fd_sc_hd__o22a_1 abstract view
.subckt sky130_fd_sc_hd__o22a_1 A1 A2 B1 B2 VGND VNB VPB VPWR X
.ends

* Black-box entry subcircuit for sky130_fd_sc_hd__a31o_2 abstract view
.subckt sky130_fd_sc_hd__a31o_2 A1 A2 A3 B1 VGND VNB VPB VPWR X
.ends

* Black-box entry subcircuit for sky130_fd_sc_hd__nand3b_4 abstract view
.subckt sky130_fd_sc_hd__nand3b_4 A_N B C VGND VNB VPB VPWR Y
.ends

* Black-box entry subcircuit for sky130_fd_sc_hd__or4b_4 abstract view
.subckt sky130_fd_sc_hd__or4b_4 A B C D_N VGND VNB VPB VPWR X
.ends

* Black-box entry subcircuit for sky130_fd_sc_hd__dfstp_1 abstract view
.subckt sky130_fd_sc_hd__dfstp_1 CLK D SET_B VGND VNB VPB VPWR Q
.ends

* Black-box entry subcircuit for sky130_fd_sc_hd__o211a_1 abstract view
.subckt sky130_fd_sc_hd__o211a_1 A1 A2 B1 C1 VGND VNB VPB VPWR X
.ends

* Black-box entry subcircuit for sky130_fd_sc_hd__a21o_1 abstract view
.subckt sky130_fd_sc_hd__a21o_1 A1 A2 B1 VGND VNB VPB VPWR X
.ends

* Black-box entry subcircuit for sky130_fd_sc_hd__xor2_4 abstract view
.subckt sky130_fd_sc_hd__xor2_4 A B VGND VNB VPB VPWR X
.ends

* Black-box entry subcircuit for sky130_fd_sc_hd__nor2_8 abstract view
.subckt sky130_fd_sc_hd__nor2_8 A B VGND VNB VPB VPWR Y
.ends

* Black-box entry subcircuit for sky130_fd_sc_hd__and3b_1 abstract view
.subckt sky130_fd_sc_hd__and3b_1 A_N B C VGND VNB VPB VPWR X
.ends

* Black-box entry subcircuit for sky130_fd_sc_hd__xor2_1 abstract view
.subckt sky130_fd_sc_hd__xor2_1 A B VGND VNB VPB VPWR X
.ends

* Black-box entry subcircuit for sky130_fd_sc_hd__o2111ai_1 abstract view
.subckt sky130_fd_sc_hd__o2111ai_1 A1 A2 B1 C1 D1 VGND VNB VPB VPWR Y
.ends

* Black-box entry subcircuit for sky130_fd_sc_hd__inv_4 abstract view
.subckt sky130_fd_sc_hd__inv_4 A VGND VNB VPB VPWR Y
.ends

* Black-box entry subcircuit for sky130_fd_sc_hd__dlygate4sd3_1 abstract view
.subckt sky130_fd_sc_hd__dlygate4sd3_1 A VGND VNB VPB VPWR X
.ends

* Black-box entry subcircuit for sky130_fd_sc_hd__nand3b_1 abstract view
.subckt sky130_fd_sc_hd__nand3b_1 A_N B C VGND VNB VPB VPWR Y
.ends

* Black-box entry subcircuit for sky130_fd_sc_hd__or4b_1 abstract view
.subckt sky130_fd_sc_hd__or4b_1 A B C D_N VGND VNB VPB VPWR X
.ends

* Black-box entry subcircuit for sky130_fd_sc_hd__o32a_1 abstract view
.subckt sky130_fd_sc_hd__o32a_1 A1 A2 A3 B1 B2 VGND VNB VPB VPWR X
.ends

* Black-box entry subcircuit for sky130_fd_sc_hd__dfxtp_1 abstract view
.subckt sky130_fd_sc_hd__dfxtp_1 CLK D VGND VNB VPB VPWR Q
.ends

* Black-box entry subcircuit for sky130_fd_sc_hd__a22oi_2 abstract view
.subckt sky130_fd_sc_hd__a22oi_2 A1 A2 B1 B2 VGND VNB VPB VPWR Y
.ends

* Black-box entry subcircuit for sky130_fd_sc_hd__and3_4 abstract view
.subckt sky130_fd_sc_hd__and3_4 A B C VGND VNB VPB VPWR X
.ends

* Black-box entry subcircuit for sky130_fd_sc_hd__nor3_1 abstract view
.subckt sky130_fd_sc_hd__nor3_1 A B C VGND VNB VPB VPWR Y
.ends

* Black-box entry subcircuit for sky130_fd_sc_hd__nand2_8 abstract view
.subckt sky130_fd_sc_hd__nand2_8 A B VGND VNB VPB VPWR Y
.ends

* Black-box entry subcircuit for sky130_fd_sc_hd__nand3_4 abstract view
.subckt sky130_fd_sc_hd__nand3_4 A B C VGND VNB VPB VPWR Y
.ends

* Black-box entry subcircuit for sky130_fd_sc_hd__a311o_1 abstract view
.subckt sky130_fd_sc_hd__a311o_1 A1 A2 A3 B1 C1 VGND VNB VPB VPWR X
.ends

* Black-box entry subcircuit for sky130_fd_sc_hd__xnor2_4 abstract view
.subckt sky130_fd_sc_hd__xnor2_4 A B VGND VNB VPB VPWR Y
.ends

* Black-box entry subcircuit for sky130_fd_sc_hd__a22o_2 abstract view
.subckt sky130_fd_sc_hd__a22o_2 A1 A2 B1 B2 VGND VNB VPB VPWR X
.ends

* Black-box entry subcircuit for sky130_fd_sc_hd__or2_4 abstract view
.subckt sky130_fd_sc_hd__or2_4 A B VGND VNB VPB VPWR X
.ends

.subckt egd_top_wrapper la_data_in_47_32[0] la_data_in_47_32[10] la_data_in_47_32[11]
+ la_data_in_47_32[12] la_data_in_47_32[13] la_data_in_47_32[14] la_data_in_47_32[15]
+ la_data_in_47_32[1] la_data_in_47_32[2] la_data_in_47_32[3] la_data_in_47_32[4]
+ la_data_in_47_32[5] la_data_in_47_32[6] la_data_in_47_32[7] la_data_in_47_32[8]
+ la_data_in_47_32[9] la_data_in_49_48[0] la_data_in_49_48[1] la_data_in_65 la_data_out_15_8[0]
+ la_data_out_15_8[1] la_data_out_15_8[2] la_data_out_15_8[3] la_data_out_15_8[4]
+ la_data_out_15_8[5] la_data_out_15_8[6] la_data_out_15_8[7] la_data_out_18_16[0]
+ la_data_out_18_16[1] la_data_out_18_16[2] la_data_out_22_19[0] la_data_out_22_19[1]
+ la_data_out_22_19[2] la_data_out_22_19[3] vccd1 vssd1 wb_clk_i
XTAP_188 vssd1 vccd1 sky130_fd_sc_hd__tapvpwrvgnd_1
XTAP_199 vssd1 vccd1 sky130_fd_sc_hd__tapvpwrvgnd_1
XFILLER_0_89_461 vssd1 vssd1 vccd1 vccd1 sky130_ef_sc_hd__decap_12
XFILLER_0_49_314 vssd1 vssd1 vccd1 vccd1 sky130_ef_sc_hd__decap_12
XFILLER_0_64_317 vssd1 vssd1 vccd1 vccd1 sky130_fd_sc_hd__fill_2
XFILLER_0_9_444 vssd1 vssd1 vccd1 vccd1 sky130_fd_sc_hd__decap_4
XFILLER_0_49_369 vssd1 vssd1 vccd1 vccd1 sky130_fd_sc_hd__decap_4
XFILLER_0_91_125 vssd1 vssd1 vccd1 vccd1 sky130_ef_sc_hd__decap_12
X_3988_ _3108_ _3077_ _0703_ _0704_ _0705_ vssd1 vssd1 vccd1 vccd1 _0706_ sky130_fd_sc_hd__o2111a_1
XFILLER_0_57_391 vssd1 vssd1 vccd1 vccd1 sky130_fd_sc_hd__fill_1
XFILLER_0_9_477 vssd1 vssd1 vccd1 vccd1 sky130_fd_sc_hd__decap_8
XFILLER_0_91_169 vssd1 vssd1 vccd1 vccd1 sky130_ef_sc_hd__decap_12
X_5727_ net15 _3105_ _2353_ vssd1 vssd1 vccd1 vccd1 _2361_ sky130_fd_sc_hd__mux2_1
XFILLER_0_60_501 vssd1 vssd1 vccd1 vccd1 sky130_fd_sc_hd__fill_1
X_5658_ _2324_ vssd1 vssd1 vccd1 vccd1 _0251_ sky130_fd_sc_hd__clkbuf_1
XFILLER_0_32_236 vssd1 vssd1 vccd1 vccd1 sky130_fd_sc_hd__decap_8
XFILLER_0_13_461 vssd1 vssd1 vccd1 vccd1 sky130_ef_sc_hd__decap_12
X_4609_ _0923_ egd_top.BitStream_buffer.BS_buffer\[91\] vssd1 vssd1 vccd1 vccd1 _1323_
+ sky130_fd_sc_hd__or2b_1
X_5589_ net16 _0469_ _2281_ vssd1 vssd1 vccd1 vccd1 _2288_ sky130_fd_sc_hd__mux2_1
XFILLER_0_40_280 vssd1 vssd1 vccd1 vccd1 sky130_ef_sc_hd__decap_12
XFILLER_0_67_111 vssd1 vssd1 vccd1 vccd1 sky130_fd_sc_hd__fill_1
X_6217__84 clknet_1_0__leaf__2722_ vssd1 vssd1 vccd1 vccd1 net136 sky130_fd_sc_hd__inv_2
XFILLER_0_67_155 vssd1 vssd1 vccd1 vccd1 sky130_fd_sc_hd__fill_1
XFILLER_0_67_188 vssd1 vssd1 vccd1 vccd1 sky130_ef_sc_hd__decap_12
XFILLER_0_70_309 vssd1 vssd1 vccd1 vccd1 sky130_fd_sc_hd__decap_4
XFILLER_0_36_531 vssd1 vssd1 vccd1 vccd1 sky130_fd_sc_hd__fill_1
XFILLER_0_23_214 vssd1 vssd1 vccd1 vccd1 sky130_fd_sc_hd__decap_8
XFILLER_0_23_225 vssd1 vssd1 vccd1 vccd1 sky130_fd_sc_hd__fill_2
XFILLER_0_48_15 vssd1 vssd1 vccd1 vccd1 sky130_ef_sc_hd__decap_12
X_4960_ _0574_ _0963_ _3075_ _0964_ vssd1 vssd1 vccd1 vccd1 _1671_ sky130_fd_sc_hd__o22ai_1
XFILLER_0_86_475 vssd1 vssd1 vccd1 vccd1 sky130_fd_sc_hd__fill_1
X_4891_ _2800_ _0787_ _3097_ _0788_ _1601_ vssd1 vssd1 vccd1 vccd1 _1602_ sky130_fd_sc_hd__a221oi_1
XFILLER_0_58_166 vssd1 vssd1 vccd1 vccd1 sky130_fd_sc_hd__decap_4
XFILLER_0_58_144 vssd1 vssd1 vccd1 vccd1 sky130_fd_sc_hd__decap_3
X_3911_ _2870_ _2872_ vssd1 vssd1 vccd1 vccd1 _0629_ sky130_fd_sc_hd__nand2_1
XFILLER_0_73_125 vssd1 vssd1 vccd1 vccd1 sky130_ef_sc_hd__decap_12
X_3842_ egd_top.BitStream_buffer.BS_buffer\[57\] vssd1 vssd1 vccd1 vccd1 _0561_ sky130_fd_sc_hd__inv_2
X_5512_ _0885_ _0414_ vssd1 vssd1 vccd1 vccd1 _2218_ sky130_fd_sc_hd__nand2_1
X_3773_ _0392_ vssd1 vssd1 vccd1 vccd1 _0492_ sky130_fd_sc_hd__inv_2
XFILLER_0_89_55 vssd1 vssd1 vccd1 vccd1 sky130_fd_sc_hd__fill_1
X_6492_ net66 egd_top.BitStream_buffer.pc\[0\] net37 vssd1 vssd1 vccd1 vccd1 egd_top.BitStream_buffer.pc_previous\[0\]
+ sky130_fd_sc_hd__dfrtp_1
X_5443_ _0920_ _0945_ _0946_ _0346_ _2149_ vssd1 vssd1 vccd1 vccd1 _2150_ sky130_fd_sc_hd__a221oi_1
X_5374_ _2887_ _0840_ _3010_ _0842_ _2080_ vssd1 vssd1 vccd1 vccd1 _2081_ sky130_fd_sc_hd__a221oi_1
X_4325_ _0926_ _0831_ _0832_ _2816_ _1040_ vssd1 vssd1 vccd1 vccd1 _1041_ sky130_fd_sc_hd__a221oi_1
XFILLER_0_10_464 vssd1 vssd1 vccd1 vccd1 sky130_fd_sc_hd__fill_1
X_4256_ _0967_ _0625_ _0968_ _0777_ _0972_ vssd1 vssd1 vccd1 vccd1 _0973_ sky130_fd_sc_hd__a221oi_1
X_3207_ _2773_ _2774_ _2775_ vssd1 vssd1 vccd1 vccd1 _2776_ sky130_fd_sc_hd__and3_1
X_4187_ _0385_ vssd1 vssd1 vccd1 vccd1 _0904_ sky130_fd_sc_hd__inv_2
XFILLER_0_49_111 vssd1 vssd1 vccd1 vccd1 sky130_fd_sc_hd__fill_1
XFILLER_0_92_401 vssd1 vssd1 vccd1 vccd1 sky130_ef_sc_hd__decap_12
XFILLER_0_49_144 vssd1 vssd1 vccd1 vccd1 sky130_fd_sc_hd__decap_8
XFILLER_0_77_497 vssd1 vssd1 vccd1 vccd1 sky130_fd_sc_hd__decap_6
XFILLER_0_37_317 vssd1 vssd1 vccd1 vccd1 sky130_ef_sc_hd__decap_12
XFILLER_0_92_445 vssd1 vssd1 vccd1 vccd1 sky130_ef_sc_hd__decap_12
XFILLER_0_52_309 vssd1 vssd1 vccd1 vccd1 sky130_fd_sc_hd__decap_8
XFILLER_0_92_489 vssd1 vssd1 vccd1 vccd1 sky130_ef_sc_hd__decap_12
XFILLER_0_33_523 vssd1 vssd1 vccd1 vccd1 sky130_fd_sc_hd__fill_2
XFILLER_0_45_383 vssd1 vssd1 vccd1 vccd1 sky130_fd_sc_hd__fill_2
XFILLER_0_5_480 vssd1 vssd1 vccd1 vccd1 sky130_fd_sc_hd__decap_4
XFILLER_0_60_397 vssd1 vssd1 vccd1 vccd1 sky130_fd_sc_hd__fill_1
XFILLER_0_60_386 vssd1 vssd1 vccd1 vccd1 sky130_fd_sc_hd__decap_6
XFILLER_0_20_217 vssd1 vssd1 vccd1 vccd1 sky130_fd_sc_hd__fill_1
XFILLER_0_18_29 vssd1 vssd1 vccd1 vccd1 sky130_fd_sc_hd__decap_4
Xclkbuf_1_1__f__2722_ clknet_0__2722_ vssd1 vssd1 vccd1 vccd1 clknet_1_1__leaf__2722_
+ sky130_fd_sc_hd__clkbuf_16
XFILLER_0_87_217 vssd1 vssd1 vccd1 vccd1 sky130_fd_sc_hd__decap_6
XFILLER_0_55_125 vssd1 vssd1 vccd1 vccd1 sky130_fd_sc_hd__fill_1
XFILLER_0_50_27 vssd1 vssd1 vccd1 vccd1 sky130_fd_sc_hd__fill_1
XFILLER_0_70_106 vssd1 vssd1 vccd1 vccd1 sky130_fd_sc_hd__fill_1
XFILLER_0_36_350 vssd1 vssd1 vccd1 vccd1 sky130_fd_sc_hd__decap_6
XFILLER_0_55_169 vssd1 vssd1 vccd1 vccd1 sky130_fd_sc_hd__decap_8
XFILLER_0_36_394 vssd1 vssd1 vccd1 vccd1 sky130_fd_sc_hd__fill_1
XFILLER_0_59_69 vssd1 vssd1 vccd1 vccd1 sky130_ef_sc_hd__decap_12
X_4110_ _3012_ vssd1 vssd1 vccd1 vccd1 _0827_ sky130_fd_sc_hd__clkbuf_4
X_5090_ _2848_ _0996_ _0495_ _0997_ _1799_ vssd1 vssd1 vccd1 vccd1 _1800_ sky130_fd_sc_hd__a221oi_1
XFILLER_0_75_57 vssd1 vssd1 vccd1 vccd1 sky130_ef_sc_hd__decap_12
X_4041_ _0411_ _2887_ _0413_ _3007_ vssd1 vssd1 vccd1 vccd1 _0759_ sky130_fd_sc_hd__a22o_1
XFILLER_0_59_431 vssd1 vssd1 vccd1 vccd1 sky130_fd_sc_hd__fill_2
X_5992_ _2505_ _2439_ vssd1 vssd1 vccd1 vccd1 _2568_ sky130_fd_sc_hd__nand2_1
XFILLER_0_93_209 vssd1 vssd1 vccd1 vccd1 sky130_ef_sc_hd__decap_12
X_4943_ _1640_ _1644_ _1649_ _1653_ vssd1 vssd1 vccd1 vccd1 _1654_ sky130_fd_sc_hd__and4_1
XFILLER_0_74_456 vssd1 vssd1 vccd1 vccd1 sky130_ef_sc_hd__decap_12
X_4874_ _0941_ _0709_ vssd1 vssd1 vccd1 vccd1 _1586_ sky130_fd_sc_hd__nand2_1
XFILLER_0_6_200 vssd1 vssd1 vccd1 vccd1 sky130_fd_sc_hd__fill_2
XFILLER_0_74_489 vssd1 vssd1 vccd1 vccd1 sky130_ef_sc_hd__decap_12
XFILLER_0_6_211 vssd1 vssd1 vccd1 vccd1 sky130_fd_sc_hd__fill_1
XFILLER_0_34_309 vssd1 vssd1 vccd1 vccd1 sky130_ef_sc_hd__decap_12
X_3825_ egd_top.BitStream_buffer.BS_buffer\[12\] vssd1 vssd1 vccd1 vccd1 _0544_ sky130_fd_sc_hd__inv_2
XFILLER_0_27_383 vssd1 vssd1 vccd1 vccd1 sky130_fd_sc_hd__fill_1
X_3756_ _2896_ egd_top.BitStream_buffer.BS_buffer\[4\] vssd1 vssd1 vccd1 vccd1 _0475_
+ sky130_fd_sc_hd__nand2_1
X_6475_ net217 _0308_ net45 vssd1 vssd1 vccd1 vccd1 egd_top.BitStream_buffer.BS_buffer\[124\]
+ sky130_fd_sc_hd__dfrtp_4
XFILLER_0_71_3 vssd1 vssd1 vccd1 vccd1 sky130_ef_sc_hd__decap_12
XFILLER_0_30_537 vssd1 vssd1 vccd1 vccd1 sky130_fd_sc_hd__fill_1
X_3687_ _0406_ vssd1 vssd1 vccd1 vccd1 _0407_ sky130_fd_sc_hd__inv_2
X_5426_ _3122_ _2931_ _3125_ egd_top.BitStream_buffer.BS_buffer\[46\] vssd1 vssd1
+ vccd1 vccd1 _2133_ sky130_fd_sc_hd__a22o_1
XFILLER_0_2_461 vssd1 vssd1 vccd1 vccd1 sky130_fd_sc_hd__decap_4
X_5357_ _2053_ _2056_ _2059_ _2063_ vssd1 vssd1 vccd1 vccd1 _2064_ sky130_fd_sc_hd__and4_2
X_4308_ _0802_ _0330_ vssd1 vssd1 vccd1 vccd1 _1024_ sky130_fd_sc_hd__nand2_1
X_5288_ _0981_ _2920_ _0982_ _2922_ _1995_ vssd1 vssd1 vccd1 vccd1 _1996_ sky130_fd_sc_hd__a221oi_1
X_4239_ _3152_ vssd1 vssd1 vccd1 vccd1 _0956_ sky130_fd_sc_hd__buf_4
XFILLER_0_69_217 vssd1 vssd1 vccd1 vccd1 sky130_fd_sc_hd__decap_4
XFILLER_0_84_209 vssd1 vssd1 vccd1 vccd1 sky130_ef_sc_hd__decap_12
XFILLER_0_37_125 vssd1 vssd1 vccd1 vccd1 sky130_fd_sc_hd__fill_1
XFILLER_0_92_253 vssd1 vssd1 vccd1 vccd1 sky130_ef_sc_hd__decap_12
XFILLER_0_37_169 vssd1 vssd1 vccd1 vccd1 sky130_fd_sc_hd__decap_8
XFILLER_0_45_180 vssd1 vssd1 vccd1 vccd1 sky130_fd_sc_hd__decap_3
XFILLER_0_60_172 vssd1 vssd1 vccd1 vccd1 sky130_fd_sc_hd__fill_1
XFILLER_0_29_28 vssd1 vssd1 vccd1 vccd1 sky130_fd_sc_hd__fill_1
XFILLER_0_45_27 vssd1 vssd1 vccd1 vccd1 sky130_fd_sc_hd__decap_4
XFILLER_0_61_15 vssd1 vssd1 vccd1 vccd1 sky130_ef_sc_hd__decap_12
XFILLER_0_0_29 vssd1 vssd1 vccd1 vccd1 sky130_fd_sc_hd__decap_8
XFILLER_0_68_294 vssd1 vssd1 vccd1 vccd1 sky130_ef_sc_hd__decap_12
XFILLER_0_71_415 vssd1 vssd1 vccd1 vccd1 sky130_ef_sc_hd__decap_12
XFILLER_0_16_309 vssd1 vssd1 vccd1 vccd1 sky130_fd_sc_hd__fill_2
XFILLER_0_9_49 vssd1 vssd1 vccd1 vccd1 sky130_fd_sc_hd__decap_6
X_3610_ egd_top.BitStream_buffer.BS_buffer\[111\] vssd1 vssd1 vccd1 vccd1 _0330_ sky130_fd_sc_hd__buf_4
XFILLER_0_43_128 vssd1 vssd1 vccd1 vccd1 sky130_fd_sc_hd__fill_1
X_4590_ _0895_ _2828_ vssd1 vssd1 vccd1 vccd1 _1304_ sky130_fd_sc_hd__nand2_1
X_3541_ egd_top.BitStream_buffer.BS_buffer\[31\] vssd1 vssd1 vccd1 vccd1 _3090_ sky130_fd_sc_hd__buf_4
XFILLER_0_3_225 vssd1 vssd1 vccd1 vccd1 sky130_fd_sc_hd__decap_6
XFILLER_0_24_386 vssd1 vssd1 vccd1 vccd1 sky130_ef_sc_hd__decap_12
X_3472_ _3020_ _2808_ vssd1 vssd1 vccd1 vccd1 _3021_ sky130_fd_sc_hd__nand2_1
XFILLER_0_10_85 vssd1 vssd1 vccd1 vccd1 sky130_fd_sc_hd__fill_1
X_5211_ _3034_ _0922_ _2904_ _0921_ _1919_ vssd1 vssd1 vccd1 vccd1 _1920_ sky130_fd_sc_hd__a221oi_1
X_5142_ _1840_ _1844_ _1846_ _1850_ vssd1 vssd1 vccd1 vccd1 _1851_ sky130_fd_sc_hd__and4_1
X_5073_ _2818_ _0954_ _2816_ _0955_ _1782_ vssd1 vssd1 vccd1 vccd1 _1783_ sky130_fd_sc_hd__a221oi_2
X_4024_ egd_top.BitStream_buffer.BS_buffer\[89\] vssd1 vssd1 vccd1 vccd1 _0742_ sky130_fd_sc_hd__clkbuf_8
X_6265__128 clknet_1_1__leaf__2726_ vssd1 vssd1 vccd1 vccd1 net180 sky130_fd_sc_hd__inv_2
XFILLER_0_66_209 vssd1 vssd1 vccd1 vccd1 sky130_fd_sc_hd__fill_2
XFILLER_0_35_71 vssd1 vssd1 vccd1 vccd1 sky130_fd_sc_hd__fill_2
XFILLER_0_35_93 vssd1 vssd1 vccd1 vccd1 sky130_fd_sc_hd__fill_1
XFILLER_0_59_272 vssd1 vssd1 vccd1 vccd1 sky130_fd_sc_hd__decap_8
X_5975_ _2551_ _2512_ vssd1 vssd1 vccd1 vccd1 _2552_ sky130_fd_sc_hd__nand2_1
XFILLER_0_59_294 vssd1 vssd1 vccd1 vccd1 sky130_ef_sc_hd__decap_12
X_4926_ _0865_ _3132_ vssd1 vssd1 vccd1 vccd1 _1637_ sky130_fd_sc_hd__nand2_1
XFILLER_0_47_456 vssd1 vssd1 vccd1 vccd1 sky130_fd_sc_hd__decap_6
XFILLER_0_74_275 vssd1 vssd1 vccd1 vccd1 sky130_ef_sc_hd__decap_12
XFILLER_0_74_253 vssd1 vssd1 vccd1 vccd1 sky130_fd_sc_hd__decap_3
Xclkbuf_0__2724_ _2724_ vssd1 vssd1 vccd1 vccd1 clknet_0__2724_ sky130_fd_sc_hd__clkbuf_16
X_4857_ _2887_ _0987_ _2881_ _0989_ _1568_ vssd1 vssd1 vccd1 vccd1 _1569_ sky130_fd_sc_hd__a221oi_1
XFILLER_0_51_81 vssd1 vssd1 vccd1 vccd1 sky130_fd_sc_hd__fill_1
XFILLER_0_15_320 vssd1 vssd1 vccd1 vccd1 sky130_ef_sc_hd__decap_12
XFILLER_0_34_117 vssd1 vssd1 vccd1 vccd1 sky130_fd_sc_hd__decap_6
XFILLER_0_34_139 vssd1 vssd1 vccd1 vccd1 sky130_fd_sc_hd__fill_1
X_3808_ _3033_ _3048_ vssd1 vssd1 vccd1 vccd1 _0527_ sky130_fd_sc_hd__nand2_1
X_4788_ _0820_ _2820_ vssd1 vssd1 vccd1 vccd1 _1500_ sky130_fd_sc_hd__nand2_1
X_3739_ _0458_ _0456_ _2789_ vssd1 vssd1 vccd1 vccd1 _0459_ sky130_fd_sc_hd__o21ai_1
X_6458_ net200 _0291_ net38 vssd1 vssd1 vccd1 vccd1 egd_top.BitStream_buffer.BitStream_buffer_output\[2\]
+ sky130_fd_sc_hd__dfrtp_1
X_5409_ _0999_ egd_top.BitStream_buffer.BS_buffer\[93\] vssd1 vssd1 vccd1 vccd1 _2116_
+ sky130_fd_sc_hd__nand2_1
X_6389_ net131 _0222_ net50 vssd1 vssd1 vccd1 vccd1 egd_top.BitStream_buffer.BS_buffer\[67\]
+ sky130_fd_sc_hd__dfrtp_1
XFILLER_0_30_389 vssd1 vssd1 vccd1 vccd1 sky130_ef_sc_hd__decap_12
XFILLER_0_85_529 vssd1 vssd1 vccd1 vccd1 sky130_ef_sc_hd__decap_12
X_6187__56 clknet_1_0__leaf__2720_ vssd1 vssd1 vccd1 vccd1 net108 sky130_fd_sc_hd__inv_2
XFILLER_0_38_489 vssd1 vssd1 vccd1 vccd1 sky130_fd_sc_hd__decap_3
XFILLER_0_80_245 vssd1 vssd1 vccd1 vccd1 sky130_fd_sc_hd__decap_6
XFILLER_0_21_378 vssd1 vssd1 vccd1 vccd1 sky130_ef_sc_hd__decap_12
XTAP_507 vssd1 vccd1 sky130_fd_sc_hd__tapvpwrvgnd_1
XTAP_518 vssd1 vccd1 sky130_fd_sc_hd__tapvpwrvgnd_1
XTAP_529 vssd1 vccd1 sky130_fd_sc_hd__tapvpwrvgnd_1
XFILLER_0_56_15 vssd1 vssd1 vccd1 vccd1 sky130_ef_sc_hd__decap_12
XFILLER_0_88_301 vssd1 vssd1 vccd1 vccd1 sky130_fd_sc_hd__decap_6
XFILLER_0_88_345 vssd1 vssd1 vccd1 vccd1 sky130_ef_sc_hd__decap_12
XFILLER_0_88_389 vssd1 vssd1 vccd1 vccd1 sky130_ef_sc_hd__decap_12
X_5760_ net5 _0443_ _2377_ vssd1 vssd1 vccd1 vccd1 _2380_ sky130_fd_sc_hd__mux2_1
XFILLER_0_29_456 vssd1 vssd1 vccd1 vccd1 sky130_fd_sc_hd__fill_2
X_5691_ net16 egd_top.BitStream_buffer.BS_buffer\[54\] _2335_ vssd1 vssd1 vccd1 vccd1
+ _2342_ sky130_fd_sc_hd__mux2_1
X_4711_ _1410_ _1414_ _1419_ _1423_ vssd1 vssd1 vccd1 vccd1 _1424_ sky130_fd_sc_hd__and4_1
XFILLER_0_56_253 vssd1 vssd1 vccd1 vccd1 sky130_ef_sc_hd__decap_12
XFILLER_0_16_139 vssd1 vssd1 vccd1 vccd1 sky130_fd_sc_hd__fill_1
X_4642_ _1354_ _1355_ vssd1 vssd1 vccd1 vccd1 _1356_ sky130_fd_sc_hd__nand2_1
X_4573_ _0341_ vssd1 vssd1 vccd1 vccd1 _1287_ sky130_fd_sc_hd__inv_2
X_3524_ _3042_ _3052_ _3063_ _3072_ vssd1 vssd1 vccd1 vccd1 _3073_ sky130_fd_sc_hd__and4_1
X_3455_ _2895_ _2961_ vssd1 vssd1 vccd1 vccd1 _3004_ sky130_fd_sc_hd__and2_1
X_3386_ egd_top.BitStream_buffer.BS_buffer\[36\] vssd1 vssd1 vccd1 vccd1 _2935_ sky130_fd_sc_hd__buf_6
X_5125_ _0804_ _1011_ vssd1 vssd1 vccd1 vccd1 _1834_ sky130_fd_sc_hd__nand2_1
XFILLER_0_34_3 vssd1 vssd1 vccd1 vccd1 sky130_fd_sc_hd__decap_3
X_5056_ _0984_ _0882_ _1763_ _1764_ _1765_ vssd1 vssd1 vccd1 vccd1 _1766_ sky130_fd_sc_hd__o2111a_1
X_4007_ _2802_ _3157_ _0329_ _2800_ vssd1 vssd1 vccd1 vccd1 _0725_ sky130_fd_sc_hd__a22o_1
XFILLER_0_46_81 vssd1 vssd1 vccd1 vccd1 sky130_fd_sc_hd__decap_3
X_5958_ _2500_ _2534_ vssd1 vssd1 vccd1 vccd1 _2535_ sky130_fd_sc_hd__nand2_1
X_4909_ _0833_ _2820_ vssd1 vssd1 vccd1 vccd1 _1620_ sky130_fd_sc_hd__nand2_1
XFILLER_0_47_264 vssd1 vssd1 vccd1 vccd1 sky130_fd_sc_hd__fill_2
X_5889_ _2464_ _2465_ vssd1 vssd1 vccd1 vccd1 _2466_ sky130_fd_sc_hd__nand2_2
XFILLER_0_30_153 vssd1 vssd1 vccd1 vccd1 sky130_fd_sc_hd__fill_2
XFILLER_0_26_29 vssd1 vssd1 vccd1 vccd1 sky130_fd_sc_hd__decap_6
X_6248__112 clknet_1_1__leaf__2725_ vssd1 vssd1 vccd1 vccd1 net164 sky130_fd_sc_hd__inv_2
XFILLER_0_85_337 vssd1 vssd1 vccd1 vccd1 sky130_ef_sc_hd__decap_12
XFILLER_0_26_426 vssd1 vssd1 vccd1 vccd1 sky130_fd_sc_hd__decap_4
XFILLER_0_53_223 vssd1 vssd1 vccd1 vccd1 sky130_fd_sc_hd__fill_1
XFILLER_0_34_492 vssd1 vssd1 vccd1 vccd1 sky130_fd_sc_hd__decap_8
XANTENNA_5 _0505_ vssd1 vssd1 vccd1 vccd1 sky130_fd_sc_hd__diode_2
XFILLER_0_21_142 vssd1 vssd1 vccd1 vccd1 sky130_fd_sc_hd__decap_6
XTAP_315 vssd1 vccd1 sky130_fd_sc_hd__tapvpwrvgnd_1
XTAP_304 vssd1 vccd1 sky130_fd_sc_hd__tapvpwrvgnd_1
XFILLER_0_67_69 vssd1 vssd1 vccd1 vccd1 sky130_ef_sc_hd__decap_12
X_3240_ net5 _2802_ _2798_ vssd1 vssd1 vccd1 vccd1 _2803_ sky130_fd_sc_hd__mux2_1
XTAP_337 vssd1 vccd1 sky130_fd_sc_hd__tapvpwrvgnd_1
XTAP_326 vssd1 vccd1 sky130_fd_sc_hd__tapvpwrvgnd_1
XTAP_348 vssd1 vccd1 sky130_fd_sc_hd__tapvpwrvgnd_1
X_3171_ _2740_ _2741_ vssd1 vssd1 vccd1 vccd1 _0325_ sky130_fd_sc_hd__nor2_1
XTAP_359 vssd1 vccd1 sky130_fd_sc_hd__tapvpwrvgnd_1
XFILLER_0_83_57 vssd1 vssd1 vccd1 vccd1 sky130_ef_sc_hd__decap_12
XFILLER_0_16_40 vssd1 vssd1 vccd1 vccd1 sky130_fd_sc_hd__fill_2
XFILLER_0_88_153 vssd1 vssd1 vccd1 vccd1 sky130_ef_sc_hd__decap_12
XFILLER_0_88_197 vssd1 vssd1 vccd1 vccd1 sky130_ef_sc_hd__decap_12
X_5812_ _2412_ vssd1 vssd1 vccd1 vccd1 _0188_ sky130_fd_sc_hd__inv_2
XFILLER_0_29_231 vssd1 vssd1 vccd1 vccd1 sky130_fd_sc_hd__decap_3
X_5743_ net1 _2959_ _2352_ vssd1 vssd1 vccd1 vccd1 _2369_ sky130_fd_sc_hd__mux2_1
XFILLER_0_91_329 vssd1 vssd1 vccd1 vccd1 sky130_fd_sc_hd__decap_6
XFILLER_0_72_521 vssd1 vssd1 vccd1 vccd1 sky130_fd_sc_hd__decap_8
XFILLER_0_32_83 vssd1 vssd1 vccd1 vccd1 sky130_fd_sc_hd__fill_1
X_5674_ _2332_ vssd1 vssd1 vccd1 vccd1 _0243_ sky130_fd_sc_hd__clkbuf_1
XFILLER_0_44_234 vssd1 vssd1 vccd1 vccd1 sky130_fd_sc_hd__fill_2