* NGSPICE file created from egd_top_wrapper.ext - technology: sky130A

* Black-box entry subcircuit for sky130_fd_sc_hd__tapvpwrvgnd_1 abstract view
.subckt sky130_fd_sc_hd__tapvpwrvgnd_1 VGND VPWR
.ends

* Black-box entry subcircuit for sky130_ef_sc_hd__decap_12 abstract view
.subckt sky130_ef_sc_hd__decap_12 VGND VNB VPB VPWR
.ends

* Black-box entry subcircuit for sky130_fd_sc_hd__dfxtp_1 abstract view
.subckt sky130_fd_sc_hd__dfxtp_1 CLK D VGND VNB VPB VPWR Q
.ends

* Black-box entry subcircuit for sky130_fd_sc_hd__decap_6 abstract view
.subckt sky130_fd_sc_hd__decap_6 VGND VNB VPB VPWR
.ends

* Black-box entry subcircuit for sky130_fd_sc_hd__clkbuf_16 abstract view
.subckt sky130_fd_sc_hd__clkbuf_16 A VGND VNB VPB VPWR X
.ends

* Black-box entry subcircuit for sky130_fd_sc_hd__o21ai_2 abstract view
.subckt sky130_fd_sc_hd__o21ai_2 A1 A2 B1 VGND VNB VPB VPWR Y
.ends

* Black-box entry subcircuit for sky130_fd_sc_hd__buf_4 abstract view
.subckt sky130_fd_sc_hd__buf_4 A VGND VNB VPB VPWR X
.ends

* Black-box entry subcircuit for sky130_fd_sc_hd__fill_2 abstract view
.subckt sky130_fd_sc_hd__fill_2 VGND VNB VPB VPWR
.ends

* Black-box entry subcircuit for sky130_fd_sc_hd__buf_2 abstract view
.subckt sky130_fd_sc_hd__buf_2 A VGND VNB VPB VPWR X
.ends

* Black-box entry subcircuit for sky130_fd_sc_hd__a221oi_1 abstract view
.subckt sky130_fd_sc_hd__a221oi_1 A1 A2 B1 B2 C1 VGND VNB VPB VPWR Y
.ends

* Black-box entry subcircuit for sky130_fd_sc_hd__o221a_1 abstract view
.subckt sky130_fd_sc_hd__o221a_1 A1 A2 B1 B2 C1 VGND VNB VPB VPWR X
.ends

* Black-box entry subcircuit for sky130_fd_sc_hd__nand2_1 abstract view
.subckt sky130_fd_sc_hd__nand2_1 A B VGND VNB VPB VPWR Y
.ends

* Black-box entry subcircuit for sky130_fd_sc_hd__decap_3 abstract view
.subckt sky130_fd_sc_hd__decap_3 VGND VNB VPB VPWR
.ends

* Black-box entry subcircuit for sky130_fd_sc_hd__fill_1 abstract view
.subckt sky130_fd_sc_hd__fill_1 VGND VNB VPB VPWR
.ends

* Black-box entry subcircuit for sky130_fd_sc_hd__decap_8 abstract view
.subckt sky130_fd_sc_hd__decap_8 VGND VNB VPB VPWR
.ends

* Black-box entry subcircuit for sky130_fd_sc_hd__nand2_2 abstract view
.subckt sky130_fd_sc_hd__nand2_2 A B VGND VNB VPB VPWR Y
.ends

* Black-box entry subcircuit for sky130_fd_sc_hd__decap_4 abstract view
.subckt sky130_fd_sc_hd__decap_4 VGND VNB VPB VPWR
.ends

* Black-box entry subcircuit for sky130_fd_sc_hd__o21ai_1 abstract view
.subckt sky130_fd_sc_hd__o21ai_1 A1 A2 B1 VGND VNB VPB VPWR Y
.ends

* Black-box entry subcircuit for sky130_fd_sc_hd__nor2_1 abstract view
.subckt sky130_fd_sc_hd__nor2_1 A B VGND VNB VPB VPWR Y
.ends

* Black-box entry subcircuit for sky130_fd_sc_hd__o22ai_1 abstract view
.subckt sky130_fd_sc_hd__o22ai_1 A1 A2 B1 B2 VGND VNB VPB VPWR Y
.ends

* Black-box entry subcircuit for sky130_fd_sc_hd__o2111a_1 abstract view
.subckt sky130_fd_sc_hd__o2111a_1 A1 A2 B1 C1 D1 VGND VNB VPB VPWR X
.ends

* Black-box entry subcircuit for sky130_fd_sc_hd__and4_1 abstract view
.subckt sky130_fd_sc_hd__and4_1 A B C D VGND VNB VPB VPWR X
.ends

* Black-box entry subcircuit for sky130_fd_sc_hd__or2_1 abstract view
.subckt sky130_fd_sc_hd__or2_1 A B VGND VNB VPB VPWR X
.ends

* Black-box entry subcircuit for sky130_fd_sc_hd__clkbuf_4 abstract view
.subckt sky130_fd_sc_hd__clkbuf_4 A VGND VNB VPB VPWR X
.ends

* Black-box entry subcircuit for sky130_fd_sc_hd__inv_2 abstract view
.subckt sky130_fd_sc_hd__inv_2 A VGND VNB VPB VPWR Y
.ends

* Black-box entry subcircuit for sky130_fd_sc_hd__and2_2 abstract view
.subckt sky130_fd_sc_hd__and2_2 A B VGND VNB VPB VPWR X
.ends

* Black-box entry subcircuit for sky130_fd_sc_hd__nor2_2 abstract view
.subckt sky130_fd_sc_hd__nor2_2 A B VGND VNB VPB VPWR Y
.ends

* Black-box entry subcircuit for sky130_fd_sc_hd__and2_1 abstract view
.subckt sky130_fd_sc_hd__and2_1 A B VGND VNB VPB VPWR X
.ends

* Black-box entry subcircuit for sky130_fd_sc_hd__clkbuf_1 abstract view
.subckt sky130_fd_sc_hd__clkbuf_1 A VGND VNB VPB VPWR X
.ends

* Black-box entry subcircuit for sky130_fd_sc_hd__o211a_1 abstract view
.subckt sky130_fd_sc_hd__o211a_1 A1 A2 B1 C1 VGND VNB VPB VPWR X
.ends

* Black-box entry subcircuit for sky130_fd_sc_hd__mux2_1 abstract view
.subckt sky130_fd_sc_hd__mux2_1 A0 A1 S VGND VNB VPB VPWR X
.ends

* Black-box entry subcircuit for sky130_fd_sc_hd__a22o_4 abstract view
.subckt sky130_fd_sc_hd__a22o_4 A1 A2 B1 B2 VGND VNB VPB VPWR X
.ends

* Black-box entry subcircuit for sky130_fd_sc_hd__a21oi_1 abstract view
.subckt sky130_fd_sc_hd__a21oi_1 A1 A2 B1 VGND VNB VPB VPWR Y
.ends

* Black-box entry subcircuit for sky130_fd_sc_hd__a22o_1 abstract view
.subckt sky130_fd_sc_hd__a22o_1 A1 A2 B1 B2 VGND VNB VPB VPWR X
.ends

* Black-box entry subcircuit for sky130_fd_sc_hd__diode_2 abstract view
.subckt sky130_fd_sc_hd__diode_2 DIODE VGND VNB VPB VPWR
.ends

* Black-box entry subcircuit for sky130_fd_sc_hd__dfxtp_2 abstract view
.subckt sky130_fd_sc_hd__dfxtp_2 CLK D VGND VNB VPB VPWR Q
.ends

* Black-box entry subcircuit for sky130_fd_sc_hd__buf_12 abstract view
.subckt sky130_fd_sc_hd__buf_12 A VGND VNB VPB VPWR X
.ends

* Black-box entry subcircuit for sky130_fd_sc_hd__clkbuf_2 abstract view
.subckt sky130_fd_sc_hd__clkbuf_2 A VGND VNB VPB VPWR X
.ends

* Black-box entry subcircuit for sky130_fd_sc_hd__nand3_1 abstract view
.subckt sky130_fd_sc_hd__nand3_1 A B C VGND VNB VPB VPWR Y
.ends

* Black-box entry subcircuit for sky130_fd_sc_hd__o31ai_2 abstract view
.subckt sky130_fd_sc_hd__o31ai_2 A1 A2 A3 B1 VGND VNB VPB VPWR Y
.ends

* Black-box entry subcircuit for sky130_fd_sc_hd__and2b_1 abstract view
.subckt sky130_fd_sc_hd__and2b_1 A_N B VGND VNB VPB VPWR X
.ends

* Black-box entry subcircuit for sky130_fd_sc_hd__o21ai_4 abstract view
.subckt sky130_fd_sc_hd__o21ai_4 A1 A2 B1 VGND VNB VPB VPWR Y
.ends

* Black-box entry subcircuit for sky130_fd_sc_hd__a211o_1 abstract view
.subckt sky130_fd_sc_hd__a211o_1 A1 A2 B1 C1 VGND VNB VPB VPWR X
.ends

* Black-box entry subcircuit for sky130_fd_sc_hd__and3_1 abstract view
.subckt sky130_fd_sc_hd__and3_1 A B C VGND VNB VPB VPWR X
.ends

* Black-box entry subcircuit for sky130_fd_sc_hd__and3b_1 abstract view
.subckt sky130_fd_sc_hd__and3b_1 A_N B C VGND VNB VPB VPWR X
.ends

* Black-box entry subcircuit for sky130_fd_sc_hd__a21o_1 abstract view
.subckt sky130_fd_sc_hd__a21o_1 A1 A2 B1 VGND VNB VPB VPWR X
.ends

* Black-box entry subcircuit for sky130_fd_sc_hd__buf_6 abstract view
.subckt sky130_fd_sc_hd__buf_6 A VGND VNB VPB VPWR X
.ends

* Black-box entry subcircuit for sky130_fd_sc_hd__buf_1 abstract view
.subckt sky130_fd_sc_hd__buf_1 A VGND VNB VPB VPWR X
.ends

* Black-box entry subcircuit for sky130_fd_sc_hd__a311o_1 abstract view
.subckt sky130_fd_sc_hd__a311o_1 A1 A2 A3 B1 C1 VGND VNB VPB VPWR X
.ends

* Black-box entry subcircuit for sky130_fd_sc_hd__a2111o_1 abstract view
.subckt sky130_fd_sc_hd__a2111o_1 A1 A2 B1 C1 D1 VGND VNB VPB VPWR X
.ends

* Black-box entry subcircuit for sky130_fd_sc_hd__o21a_1 abstract view
.subckt sky130_fd_sc_hd__o21a_1 A1 A2 B1 VGND VNB VPB VPWR X
.ends

* Black-box entry subcircuit for sky130_fd_sc_hd__o311ai_4 abstract view
.subckt sky130_fd_sc_hd__o311ai_4 A1 A2 A3 B1 C1 VGND VNB VPB VPWR Y
.ends

* Black-box entry subcircuit for sky130_fd_sc_hd__and3_2 abstract view
.subckt sky130_fd_sc_hd__and3_2 A B C VGND VNB VPB VPWR X
.ends

* Black-box entry subcircuit for sky130_fd_sc_hd__nor2_4 abstract view
.subckt sky130_fd_sc_hd__nor2_4 A B VGND VNB VPB VPWR Y
.ends

* Black-box entry subcircuit for sky130_fd_sc_hd__nand2_4 abstract view
.subckt sky130_fd_sc_hd__nand2_4 A B VGND VNB VPB VPWR Y
.ends

* Black-box entry subcircuit for sky130_fd_sc_hd__or3b_1 abstract view
.subckt sky130_fd_sc_hd__or3b_1 A B C_N VGND VNB VPB VPWR X
.ends

* Black-box entry subcircuit for sky130_fd_sc_hd__or2_2 abstract view
.subckt sky130_fd_sc_hd__or2_2 A B VGND VNB VPB VPWR X
.ends

* Black-box entry subcircuit for sky130_fd_sc_hd__nor3_1 abstract view
.subckt sky130_fd_sc_hd__nor3_1 A B C VGND VNB VPB VPWR Y
.ends

* Black-box entry subcircuit for sky130_fd_sc_hd__or3_1 abstract view
.subckt sky130_fd_sc_hd__or3_1 A B C VGND VNB VPB VPWR X
.ends

* Black-box entry subcircuit for sky130_fd_sc_hd__a31o_1 abstract view
.subckt sky130_fd_sc_hd__a31o_1 A1 A2 A3 B1 VGND VNB VPB VPWR X
.ends

* Black-box entry subcircuit for sky130_fd_sc_hd__o2bb2ai_1 abstract view
.subckt sky130_fd_sc_hd__o2bb2ai_1 A1_N A2_N B1 B2 VGND VNB VPB VPWR Y
.ends

* Black-box entry subcircuit for sky130_fd_sc_hd__or4b_2 abstract view
.subckt sky130_fd_sc_hd__or4b_2 A B C D_N VGND VNB VPB VPWR X
.ends

* Black-box entry subcircuit for sky130_fd_sc_hd__inv_4 abstract view
.subckt sky130_fd_sc_hd__inv_4 A VGND VNB VPB VPWR Y
.ends

* Black-box entry subcircuit for sky130_fd_sc_hd__or4b_1 abstract view
.subckt sky130_fd_sc_hd__or4b_1 A B C D_N VGND VNB VPB VPWR X
.ends

* Black-box entry subcircuit for sky130_fd_sc_hd__xor2_4 abstract view
.subckt sky130_fd_sc_hd__xor2_4 A B VGND VNB VPB VPWR X
.ends

* Black-box entry subcircuit for sky130_fd_sc_hd__nand3b_1 abstract view
.subckt sky130_fd_sc_hd__nand3b_1 A_N B C VGND VNB VPB VPWR Y
.ends

* Black-box entry subcircuit for sky130_fd_sc_hd__clkbuf_8 abstract view
.subckt sky130_fd_sc_hd__clkbuf_8 A VGND VNB VPB VPWR X
.ends

* Black-box entry subcircuit for sky130_fd_sc_hd__o21bai_1 abstract view
.subckt sky130_fd_sc_hd__o21bai_1 A1 A2 B1_N VGND VNB VPB VPWR Y
.ends

* Black-box entry subcircuit for sky130_fd_sc_hd__nand3_2 abstract view
.subckt sky130_fd_sc_hd__nand3_2 A B C VGND VNB VPB VPWR Y
.ends

* Black-box entry subcircuit for sky130_fd_sc_hd__a32o_1 abstract view
.subckt sky130_fd_sc_hd__a32o_1 A1 A2 A3 B1 B2 VGND VNB VPB VPWR X
.ends

* Black-box entry subcircuit for sky130_fd_sc_hd__a22oi_2 abstract view
.subckt sky130_fd_sc_hd__a22oi_2 A1 A2 B1 B2 VGND VNB VPB VPWR Y
.ends

* Black-box entry subcircuit for sky130_fd_sc_hd__o2bb2ai_2 abstract view
.subckt sky130_fd_sc_hd__o2bb2ai_2 A1_N A2_N B1 B2 VGND VNB VPB VPWR Y
.ends

* Black-box entry subcircuit for sky130_fd_sc_hd__a221oi_2 abstract view
.subckt sky130_fd_sc_hd__a221oi_2 A1 A2 B1 B2 C1 VGND VNB VPB VPWR Y
.ends

* Black-box entry subcircuit for sky130_fd_sc_hd__or2b_2 abstract view
.subckt sky130_fd_sc_hd__or2b_2 A B_N VGND VNB VPB VPWR X
.ends

* Black-box entry subcircuit for sky130_fd_sc_hd__xnor2_1 abstract view
.subckt sky130_fd_sc_hd__xnor2_1 A B VGND VNB VPB VPWR Y
.ends

* Black-box entry subcircuit for sky130_fd_sc_hd__o21ba_1 abstract view
.subckt sky130_fd_sc_hd__o21ba_1 A1 A2 B1_N VGND VNB VPB VPWR X
.ends

* Black-box entry subcircuit for sky130_fd_sc_hd__dlymetal6s2s_1 abstract view
.subckt sky130_fd_sc_hd__dlymetal6s2s_1 A VGND VNB VPB VPWR X
.ends

* Black-box entry subcircuit for sky130_fd_sc_hd__dlygate4sd3_1 abstract view
.subckt sky130_fd_sc_hd__dlygate4sd3_1 A VGND VNB VPB VPWR X
.ends

* Black-box entry subcircuit for sky130_fd_sc_hd__and4b_1 abstract view
.subckt sky130_fd_sc_hd__and4b_1 A_N B C D VGND VNB VPB VPWR X
.ends

* Black-box entry subcircuit for sky130_fd_sc_hd__o41a_1 abstract view
.subckt sky130_fd_sc_hd__o41a_1 A1 A2 A3 A4 B1 VGND VNB VPB VPWR X
.ends

* Black-box entry subcircuit for sky130_fd_sc_hd__nand3b_2 abstract view
.subckt sky130_fd_sc_hd__nand3b_2 A_N B C VGND VNB VPB VPWR Y
.ends

* Black-box entry subcircuit for sky130_fd_sc_hd__a21oi_2 abstract view
.subckt sky130_fd_sc_hd__a21oi_2 A1 A2 B1 VGND VNB VPB VPWR Y
.ends

* Black-box entry subcircuit for sky130_fd_sc_hd__xnor2_4 abstract view
.subckt sky130_fd_sc_hd__xnor2_4 A B VGND VNB VPB VPWR Y
.ends

* Black-box entry subcircuit for sky130_fd_sc_hd__o31a_1 abstract view
.subckt sky130_fd_sc_hd__o31a_1 A1 A2 A3 B1 VGND VNB VPB VPWR X
.ends

* Black-box entry subcircuit for sky130_fd_sc_hd__a21bo_2 abstract view
.subckt sky130_fd_sc_hd__a21bo_2 A1 A2 B1_N VGND VNB VPB VPWR X
.ends

* Black-box entry subcircuit for sky130_fd_sc_hd__and2b_2 abstract view
.subckt sky130_fd_sc_hd__and2b_2 A_N B VGND VNB VPB VPWR X
.ends

.subckt egd_top_wrapper la_data_in_47_32[0] la_data_in_47_32[10] la_data_in_47_32[11]
+ la_data_in_47_32[12] la_data_in_47_32[13] la_data_in_47_32[14] la_data_in_47_32[15]
+ la_data_in_47_32[1] la_data_in_47_32[2] la_data_in_47_32[3] la_data_in_47_32[4]
+ la_data_in_47_32[5] la_data_in_47_32[6] la_data_in_47_32[7] la_data_in_47_32[8]
+ la_data_in_47_32[9] la_data_in_49_48[0] la_data_in_49_48[1] la_data_in_64 la_data_in_65
+ la_data_out_15_8[0] la_data_out_15_8[1] la_data_out_15_8[2] la_data_out_15_8[3]
+ la_data_out_15_8[4] la_data_out_15_8[5] la_data_out_15_8[6] la_data_out_15_8[7]
+ la_data_out_18_16[0] la_data_out_18_16[1] la_data_out_18_16[2] la_data_out_22_19[0]
+ la_data_out_22_19[1] la_data_out_22_19[2] la_data_out_22_19[3] la_oenb_64 vccd1
+ vssd1 wb_clk_i
XTAP_188 vssd1 vccd1 sky130_fd_sc_hd__tapvpwrvgnd_1
XTAP_199 vssd1 vccd1 sky130_fd_sc_hd__tapvpwrvgnd_1
XFILLER_0_27_93 vssd1 vssd1 vccd1 vccd1 sky130_ef_sc_hd__decap_12
XFILLER_0_89_461 vssd1 vssd1 vccd1 vccd1 sky130_ef_sc_hd__decap_12
X_6914_ _0008_ _0169_ vssd1 vssd1 vccd1 vccd1 egd_top.BitStream_buffer.BS_buffer\[87\]
+ sky130_fd_sc_hd__dfxtp_1
XFILLER_0_76_133 vssd1 vssd1 vccd1 vccd1 sky130_fd_sc_hd__decap_6
Xclkbuf_0__2973_ _2973_ vssd1 vssd1 vccd1 vccd1 clknet_0__2973_ sky130_fd_sc_hd__clkbuf_16
XFILLER_0_76_177 vssd1 vssd1 vccd1 vccd1 sky130_ef_sc_hd__decap_12
XFILLER_0_9_411 vssd1 vssd1 vccd1 vccd1 sky130_fd_sc_hd__decap_6
X_6845_ _2989_ _2990_ clknet_1_1__leaf__2991_ vssd1 vssd1 vccd1 vccd1 _0112_ sky130_fd_sc_hd__o21ai_2
XFILLER_0_43_81 vssd1 vssd1 vccd1 vccd1 sky130_ef_sc_hd__decap_12
X_6776_ _2953_ vssd1 vssd1 vccd1 vccd1 _2975_ sky130_fd_sc_hd__buf_4
XFILLER_0_17_211 vssd1 vssd1 vccd1 vccd1 sky130_fd_sc_hd__fill_2
X_3988_ _0401_ vssd1 vssd1 vccd1 vccd1 _0402_ sky130_fd_sc_hd__buf_2
X_5727_ _0542_ _0527_ _0549_ _0531_ _2128_ vssd1 vssd1 vccd1 vccd1 _2129_ sky130_fd_sc_hd__a221oi_1
X_5658_ _0664_ _3286_ _3306_ _3289_ _2059_ vssd1 vssd1 vccd1 vccd1 _2060_ sky130_fd_sc_hd__o221a_1
X_4609_ _3116_ _0431_ _3119_ _0434_ _1019_ vssd1 vssd1 vccd1 vccd1 _1020_ sky130_fd_sc_hd__a221oi_1
X_5589_ _0439_ _3246_ vssd1 vssd1 vccd1 vccd1 _1992_ sky130_fd_sc_hd__nand2_1
XFILLER_0_7_81 vssd1 vssd1 vccd1 vccd1 sky130_fd_sc_hd__decap_3
XFILLER_0_67_111 vssd1 vssd1 vccd1 vccd1 sky130_fd_sc_hd__fill_1
XFILLER_0_55_328 vssd1 vssd1 vccd1 vccd1 sky130_fd_sc_hd__decap_8
XFILLER_0_70_309 vssd1 vssd1 vccd1 vccd1 sky130_fd_sc_hd__decap_3
XFILLER_0_36_531 vssd1 vssd1 vccd1 vccd1 sky130_fd_sc_hd__fill_1
XFILLER_0_23_258 vssd1 vssd1 vccd1 vccd1 sky130_fd_sc_hd__fill_1
XFILLER_0_48_15 vssd1 vssd1 vccd1 vccd1 sky130_ef_sc_hd__decap_12
XFILLER_0_3_39 vssd1 vssd1 vccd1 vccd1 sky130_ef_sc_hd__decap_12
X_4960_ _3436_ egd_top.BitStream_buffer.BS_buffer\[55\] vssd1 vssd1 vccd1 vccd1 _1368_
+ sky130_fd_sc_hd__nand2_1
XFILLER_0_58_133 vssd1 vssd1 vccd1 vccd1 sky130_fd_sc_hd__decap_6
XFILLER_0_86_475 vssd1 vssd1 vccd1 vccd1 sky130_fd_sc_hd__fill_1
X_4891_ _1298_ _1299_ vssd1 vssd1 vccd1 vccd1 _1300_ sky130_fd_sc_hd__nand2_1
X_3911_ _0324_ vssd1 vssd1 vccd1 vccd1 _0325_ sky130_fd_sc_hd__buf_2
XFILLER_0_73_125 vssd1 vssd1 vccd1 vccd1 sky130_ef_sc_hd__decap_12
X_3842_ _3038_ _3314_ vssd1 vssd1 vccd1 vccd1 _3378_ sky130_fd_sc_hd__nand2_2
XFILLER_0_58_177 vssd1 vssd1 vccd1 vccd1 sky130_ef_sc_hd__decap_12
XFILLER_0_13_51 vssd1 vssd1 vccd1 vccd1 sky130_fd_sc_hd__decap_4
X_6630_ _2718_ _2724_ egd_top.BitStream_buffer.BitStream_buffer_output\[8\] vssd1
+ vssd1 vccd1 vccd1 _2893_ sky130_fd_sc_hd__o21ai_1
XFILLER_0_73_169 vssd1 vssd1 vccd1 vccd1 sky130_ef_sc_hd__decap_12
X_6561_ _2727_ _2670_ vssd1 vssd1 vccd1 vccd1 _2830_ sky130_fd_sc_hd__nand2_1
X_5512_ egd_top.BitStream_buffer.BitStream_buffer_valid_n _1915_ vssd1 vssd1 vccd1
+ vccd1 _1916_ sky130_fd_sc_hd__nor2_1
X_3773_ _3303_ _3305_ _3306_ _3308_ vssd1 vssd1 vccd1 vccd1 _3309_ sky130_fd_sc_hd__o22ai_1
XFILLER_0_89_55 vssd1 vssd1 vccd1 vccd1 sky130_fd_sc_hd__fill_1
X_6492_ _2760_ _2762_ vssd1 vssd1 vccd1 vccd1 _2763_ sky130_fd_sc_hd__nand2_1
X_5443_ _3414_ _0380_ vssd1 vssd1 vccd1 vccd1 _1847_ sky130_fd_sc_hd__nand2_1
X_5374_ _0555_ _3087_ vssd1 vssd1 vccd1 vccd1 _1779_ sky130_fd_sc_hd__nand2_1
X_4325_ _0455_ _3087_ vssd1 vssd1 vccd1 vccd1 _0738_ sky130_fd_sc_hd__nand2_1
XFILLER_0_22_291 vssd1 vssd1 vccd1 vccd1 sky130_fd_sc_hd__decap_4
X_4256_ _3326_ _3324_ _0668_ _3328_ vssd1 vssd1 vccd1 vccd1 _0669_ sky130_fd_sc_hd__o22ai_1
X_7044_ _0138_ _0299_ vssd1 vssd1 vccd1 vccd1 egd_top.BitStream_buffer.BS_buffer\[126\]
+ sky130_fd_sc_hd__dfxtp_1
X_4187_ _0584_ _0586_ _0591_ _0596_ _0600_ vssd1 vssd1 vccd1 vccd1 _0601_ sky130_fd_sc_hd__o2111a_1
XFILLER_0_49_111 vssd1 vssd1 vccd1 vccd1 sky130_fd_sc_hd__fill_1
Xclkbuf_0__2956_ _2956_ vssd1 vssd1 vccd1 vccd1 clknet_0__2956_ sky130_fd_sc_hd__clkbuf_16
XFILLER_0_77_497 vssd1 vssd1 vccd1 vccd1 sky130_fd_sc_hd__decap_6
X_6828_ _2952_ vssd1 vssd1 vccd1 vccd1 _2987_ sky130_fd_sc_hd__buf_4
XFILLER_0_9_274 vssd1 vssd1 vccd1 vccd1 sky130_fd_sc_hd__fill_2
XFILLER_0_52_309 vssd1 vssd1 vccd1 vccd1 sky130_fd_sc_hd__decap_8
X_6759_ _2968_ _2969_ clknet_1_1__leaf__2970_ vssd1 vssd1 vccd1 vccd1 _0047_ sky130_fd_sc_hd__o21ai_2
XFILLER_0_60_331 vssd1 vssd1 vccd1 vccd1 sky130_fd_sc_hd__fill_1
XFILLER_0_18_29 vssd1 vssd1 vccd1 vccd1 sky130_ef_sc_hd__decap_12
XFILLER_0_87_217 vssd1 vssd1 vccd1 vccd1 sky130_fd_sc_hd__decap_6
XFILLER_0_68_475 vssd1 vssd1 vccd1 vccd1 sky130_fd_sc_hd__fill_1
XFILLER_0_68_497 vssd1 vssd1 vccd1 vccd1 sky130_ef_sc_hd__decap_12
XFILLER_0_55_125 vssd1 vssd1 vccd1 vccd1 sky130_ef_sc_hd__decap_12
XFILLER_0_50_27 vssd1 vssd1 vccd1 vccd1 sky130_fd_sc_hd__fill_1
XFILLER_0_55_169 vssd1 vssd1 vccd1 vccd1 sky130_ef_sc_hd__decap_12
XFILLER_0_70_139 vssd1 vssd1 vccd1 vccd1 sky130_fd_sc_hd__fill_1
XFILLER_0_59_69 vssd1 vssd1 vccd1 vccd1 sky130_ef_sc_hd__decap_12
X_4110_ _0517_ _0523_ vssd1 vssd1 vccd1 vccd1 _0524_ sky130_fd_sc_hd__nor2_1
X_5090_ _1454_ _1467_ _1481_ _1496_ vssd1 vssd1 vccd1 vccd1 _1497_ sky130_fd_sc_hd__and4_1
XFILLER_0_75_57 vssd1 vssd1 vccd1 vccd1 sky130_ef_sc_hd__decap_12
X_4041_ _0454_ vssd1 vssd1 vccd1 vccd1 _0455_ sky130_fd_sc_hd__buf_2
X_5992_ egd_top.BitStream_buffer.buffer_index\[4\] _3076_ vssd1 vssd1 vccd1 vccd1
+ _2389_ sky130_fd_sc_hd__or2_1
X_4943_ _1349_ _1350_ vssd1 vssd1 vccd1 vccd1 _1351_ sky130_fd_sc_hd__nand2_1
XFILLER_0_74_412 vssd1 vssd1 vccd1 vccd1 sky130_fd_sc_hd__decap_8
XFILLER_0_24_83 vssd1 vssd1 vccd1 vccd1 sky130_fd_sc_hd__fill_1
X_6613_ _2680_ _2834_ vssd1 vssd1 vccd1 vccd1 _2877_ sky130_fd_sc_hd__nor2_1
X_4874_ _0499_ _0758_ vssd1 vssd1 vccd1 vccd1 _1283_ sky130_fd_sc_hd__nand2_1
X_3825_ _3360_ vssd1 vssd1 vccd1 vccd1 _3361_ sky130_fd_sc_hd__clkbuf_4
XFILLER_0_34_309 vssd1 vssd1 vccd1 vccd1 sky130_fd_sc_hd__decap_3
X_6544_ _2810_ _2713_ _2813_ vssd1 vssd1 vccd1 vccd1 _2814_ sky130_fd_sc_hd__o21ai_1
X_3756_ _3291_ vssd1 vssd1 vccd1 vccd1 _3292_ sky130_fd_sc_hd__inv_2
X_6475_ _2744_ _2745_ vssd1 vssd1 vccd1 vccd1 _2746_ sky130_fd_sc_hd__and2_2
XFILLER_0_71_3 vssd1 vssd1 vccd1 vccd1 sky130_ef_sc_hd__decap_12
X_5426_ _0975_ _3316_ _1107_ _3320_ _1829_ vssd1 vssd1 vccd1 vccd1 _1830_ sky130_fd_sc_hd__a221oi_1
X_3687_ _3029_ _3157_ vssd1 vssd1 vccd1 vccd1 _3223_ sky130_fd_sc_hd__nor2_2
XFILLER_0_30_537 vssd1 vssd1 vccd1 vccd1 sky130_fd_sc_hd__fill_1
XFILLER_0_42_386 vssd1 vssd1 vccd1 vccd1 sky130_fd_sc_hd__fill_1
X_5357_ _3116_ _0446_ _3119_ _0449_ _1761_ vssd1 vssd1 vccd1 vccd1 _1762_ sky130_fd_sc_hd__a221oi_1
X_5288_ _3240_ _3325_ vssd1 vssd1 vccd1 vccd1 _1693_ sky130_fd_sc_hd__nand2_1
X_4308_ _0384_ _0720_ vssd1 vssd1 vccd1 vccd1 _0721_ sky130_fd_sc_hd__nand2_1
X_7027_ _0121_ _0282_ vssd1 vssd1 vccd1 vccd1 egd_top.BitStream_buffer.buffer_index\[6\]
+ sky130_fd_sc_hd__dfxtp_1
X_4239_ _3260_ _3246_ vssd1 vssd1 vccd1 vccd1 _0652_ sky130_fd_sc_hd__nand2_1
XFILLER_0_4_71 vssd1 vssd1 vccd1 vccd1 sky130_fd_sc_hd__fill_1
XFILLER_0_84_209 vssd1 vssd1 vccd1 vccd1 sky130_ef_sc_hd__decap_12
XFILLER_0_37_125 vssd1 vssd1 vccd1 vccd1 sky130_ef_sc_hd__decap_12
XFILLER_0_37_169 vssd1 vssd1 vccd1 vccd1 sky130_ef_sc_hd__decap_12
XFILLER_0_52_139 vssd1 vssd1 vccd1 vccd1 sky130_fd_sc_hd__fill_1
XFILLER_0_21_526 vssd1 vssd1 vccd1 vccd1 sky130_fd_sc_hd__decap_8
XFILLER_0_33_375 vssd1 vssd1 vccd1 vccd1 sky130_fd_sc_hd__decap_4
XFILLER_0_29_39 vssd1 vssd1 vccd1 vccd1 sky130_ef_sc_hd__decap_12
XFILLER_0_45_27 vssd1 vssd1 vccd1 vccd1 sky130_ef_sc_hd__decap_12
XFILLER_0_88_537 vssd1 vssd1 vccd1 vccd1 sky130_fd_sc_hd__fill_1
XFILLER_0_61_15 vssd1 vssd1 vccd1 vccd1 sky130_ef_sc_hd__decap_12
XFILLER_0_0_29 vssd1 vssd1 vccd1 vccd1 sky130_fd_sc_hd__decap_8
XFILLER_0_28_147 vssd1 vssd1 vccd1 vccd1 sky130_fd_sc_hd__decap_8
XFILLER_0_71_415 vssd1 vssd1 vccd1 vccd1 sky130_fd_sc_hd__decap_3
X_3610_ _3142_ _3145_ vssd1 vssd1 vccd1 vccd1 _3146_ sky130_fd_sc_hd__nand2_2
XFILLER_0_9_27 vssd1 vssd1 vccd1 vccd1 sky130_ef_sc_hd__decap_12
X_4590_ _0403_ _0342_ _0392_ _0346_ _1000_ vssd1 vssd1 vccd1 vccd1 _1001_ sky130_fd_sc_hd__a221oi_1
X_3541_ egd_top.BitStream_buffer.BS_buffer\[115\] vssd1 vssd1 vccd1 vccd1 _3090_ sky130_fd_sc_hd__buf_2
XFILLER_0_12_537 vssd1 vssd1 vccd1 vccd1 sky130_fd_sc_hd__fill_1
XFILLER_0_10_41 vssd1 vssd1 vccd1 vccd1 sky130_ef_sc_hd__decap_12
XFILLER_0_24_386 vssd1 vssd1 vccd1 vccd1 sky130_fd_sc_hd__decap_3
XFILLER_0_51_161 vssd1 vssd1 vccd1 vccd1 sky130_fd_sc_hd__decap_6
X_6260_ _2575_ _2568_ vssd1 vssd1 vccd1 vccd1 _2576_ sky130_fd_sc_hd__and2_1
XFILLER_0_10_85 vssd1 vssd1 vccd1 vccd1 sky130_ef_sc_hd__decap_12
X_3472_ net31 vssd1 vssd1 vccd1 vccd1 _3028_ sky130_fd_sc_hd__inv_2
X_6191_ _2527_ vssd1 vssd1 vccd1 vccd1 _0220_ sky130_fd_sc_hd__clkbuf_1
X_5211_ _0380_ _3443_ _0718_ _0325_ _1616_ vssd1 vssd1 vccd1 vccd1 _1617_ sky130_fd_sc_hd__a221oi_1
X_5142_ _1302_ _0599_ vssd1 vssd1 vccd1 vccd1 _1549_ sky130_fd_sc_hd__or2_1
X_5073_ _3427_ _3372_ _3399_ _3376_ _1479_ vssd1 vssd1 vccd1 vccd1 _1480_ sky130_fd_sc_hd__a221oi_1
X_4024_ _3159_ _0413_ vssd1 vssd1 vccd1 vccd1 _0438_ sky130_fd_sc_hd__and2_1
XFILLER_0_79_537 vssd1 vssd1 vccd1 vccd1 sky130_fd_sc_hd__fill_1
Xclkbuf_1_0__f__2979_ clknet_0__2979_ vssd1 vssd1 vccd1 vccd1 clknet_1_0__leaf__2979_
+ sky130_fd_sc_hd__clkbuf_16
XFILLER_0_35_93 vssd1 vssd1 vccd1 vccd1 sky130_ef_sc_hd__decap_12
XFILLER_0_59_272 vssd1 vssd1 vccd1 vccd1 sky130_fd_sc_hd__decap_4
X_5975_ _1021_ _0598_ vssd1 vssd1 vccd1 vccd1 _2375_ sky130_fd_sc_hd__or2_1
XFILLER_0_47_412 vssd1 vssd1 vccd1 vccd1 sky130_ef_sc_hd__decap_12
X_4926_ _3260_ egd_top.BitStream_buffer.BS_buffer\[10\] vssd1 vssd1 vccd1 vccd1 _1334_
+ sky130_fd_sc_hd__nand2_1
XFILLER_0_47_434 vssd1 vssd1 vccd1 vccd1 sky130_fd_sc_hd__fill_2
XFILLER_0_7_520 vssd1 vssd1 vccd1 vccd1 sky130_ef_sc_hd__decap_12
XFILLER_0_19_169 vssd1 vssd1 vccd1 vccd1 sky130_fd_sc_hd__decap_4
X_4857_ _0500_ _0395_ _0751_ _0399_ _1265_ vssd1 vssd1 vccd1 vccd1 _1266_ sky130_fd_sc_hd__a221oi_1
XFILLER_0_47_478 vssd1 vssd1 vccd1 vccd1 sky130_fd_sc_hd__fill_2
XFILLER_0_51_81 vssd1 vssd1 vccd1 vccd1 sky130_ef_sc_hd__decap_12
XFILLER_0_62_437 vssd1 vssd1 vccd1 vccd1 sky130_fd_sc_hd__fill_2
X_3808_ _3142_ _3313_ vssd1 vssd1 vccd1 vccd1 _3344_ sky130_fd_sc_hd__and2_1
XFILLER_0_34_139 vssd1 vssd1 vccd1 vccd1 sky130_fd_sc_hd__fill_1
X_6527_ _2793_ _2796_ vssd1 vssd1 vccd1 vccd1 _2797_ sky130_fd_sc_hd__nand2_1
X_4788_ _1193_ _3147_ _1194_ _1196_ vssd1 vssd1 vccd1 vccd1 _1197_ sky130_fd_sc_hd__o211a_1
XFILLER_0_30_301 vssd1 vssd1 vccd1 vccd1 sky130_fd_sc_hd__decap_6
X_3739_ _3142_ _3249_ vssd1 vssd1 vccd1 vccd1 _3275_ sky130_fd_sc_hd__and2_1
X_6458_ _2727_ _2728_ vssd1 vssd1 vccd1 vccd1 _2729_ sky130_fd_sc_hd__nand2_1
X_5409_ _1811_ _1812_ vssd1 vssd1 vccd1 vccd1 _1813_ sky130_fd_sc_hd__nand2_1
X_6389_ net8 _0525_ _2631_ vssd1 vssd1 vccd1 vccd1 _2662_ sky130_fd_sc_hd__mux2_1
XFILLER_0_85_529 vssd1 vssd1 vccd1 vccd1 sky130_fd_sc_hd__decap_8
XFILLER_0_38_456 vssd1 vssd1 vccd1 vccd1 sky130_fd_sc_hd__fill_1
XFILLER_0_80_245 vssd1 vssd1 vccd1 vccd1 sky130_fd_sc_hd__decap_6
XFILLER_0_80_289 vssd1 vssd1 vccd1 vccd1 sky130_fd_sc_hd__decap_4
XFILLER_0_33_161 vssd1 vssd1 vccd1 vccd1 sky130_fd_sc_hd__decap_6
XFILLER_0_40_109 vssd1 vssd1 vccd1 vccd1 sky130_ef_sc_hd__decap_12
XTAP_507 vssd1 vccd1 sky130_fd_sc_hd__tapvpwrvgnd_1
XTAP_518 vssd1 vccd1 sky130_fd_sc_hd__tapvpwrvgnd_1
XTAP_529 vssd1 vccd1 sky130_fd_sc_hd__tapvpwrvgnd_1
XFILLER_0_56_15 vssd1 vssd1 vccd1 vccd1 sky130_ef_sc_hd__decap_12
XFILLER_0_88_301 vssd1 vssd1 vccd1 vccd1 sky130_fd_sc_hd__decap_6
XFILLER_0_88_345 vssd1 vssd1 vccd1 vccd1 sky130_ef_sc_hd__decap_12
XFILLER_0_88_389 vssd1 vssd1 vccd1 vccd1 sky130_ef_sc_hd__decap_12
X_5760_ _3359_ _3218_ vssd1 vssd1 vccd1 vccd1 _2161_ sky130_fd_sc_hd__or2_1
XFILLER_0_29_445 vssd1 vssd1 vccd1 vccd1 sky130_fd_sc_hd__decap_3
X_4711_ _3436_ egd_top.BitStream_buffer.BS_buffer\[53\] vssd1 vssd1 vccd1 vccd1 _1121_
+ sky130_fd_sc_hd__nand2_1
X_5691_ _0511_ _0348_ _0514_ _0352_ vssd1 vssd1 vccd1 vccd1 _2093_ sky130_fd_sc_hd__o22ai_1
XFILLER_0_44_415 vssd1 vssd1 vccd1 vccd1 sky130_fd_sc_hd__decap_4
XFILLER_0_56_242 vssd1 vssd1 vccd1 vccd1 sky130_fd_sc_hd__decap_3
X_4642_ _0589_ egd_top.BitStream_buffer.BS_buffer\[103\] vssd1 vssd1 vccd1 vccd1 _1053_
+ sky130_fd_sc_hd__nand2_1
XFILLER_0_21_51 vssd1 vssd1 vccd1 vccd1 sky130_fd_sc_hd__decap_4
XFILLER_0_71_278 vssd1 vssd1 vccd1 vccd1 sky130_fd_sc_hd__fill_2
X_4573_ _0691_ _3390_ _0981_ _0982_ _0983_ vssd1 vssd1 vccd1 vccd1 _0984_ sky130_fd_sc_hd__o2111a_1
X_6312_ egd_top.BitStream_buffer.pc_previous\[2\] egd_top.BitStream_buffer.exp_golomb_len\[2\]
+ vssd1 vssd1 vccd1 vccd1 _2612_ sky130_fd_sc_hd__or2_1
X_3524_ _3073_ _3074_ _3020_ _3075_ vssd1 vssd1 vccd1 vccd1 _3076_ sky130_fd_sc_hd__a22o_4
XFILLER_0_24_194 vssd1 vssd1 vccd1 vccd1 sky130_fd_sc_hd__fill_2
X_3455_ _3011_ _3012_ _3013_ vssd1 vssd1 vccd1 vccd1 _0320_ sky130_fd_sc_hd__a21oi_1
X_6243_ net10 _0408_ _2536_ vssd1 vssd1 vccd1 vccd1 _2563_ sky130_fd_sc_hd__mux2_1
X_6174_ _2515_ _2503_ vssd1 vssd1 vccd1 vccd1 _2516_ sky130_fd_sc_hd__and2_1
X_5125_ _0519_ _0892_ _0521_ _0525_ vssd1 vssd1 vccd1 vccd1 _1532_ sky130_fd_sc_hd__a22o_1
XFILLER_0_34_3 vssd1 vssd1 vccd1 vccd1 sky130_ef_sc_hd__decap_12
X_5056_ _0658_ _3294_ vssd1 vssd1 vccd1 vccd1 _1463_ sky130_fd_sc_hd__or2_1
X_4007_ egd_top.BitStream_buffer.BS_buffer\[116\] vssd1 vssd1 vccd1 vccd1 _0421_ sky130_fd_sc_hd__inv_2
XFILLER_0_79_389 vssd1 vssd1 vccd1 vccd1 sky130_fd_sc_hd__decap_3
XFILLER_0_67_529 vssd1 vssd1 vccd1 vccd1 sky130_fd_sc_hd__decap_8
X_5958_ _2354_ _2355_ _2356_ _2357_ vssd1 vssd1 vccd1 vccd1 _2358_ sky130_fd_sc_hd__and4_1
X_4909_ _3154_ _3227_ vssd1 vssd1 vccd1 vccd1 _1317_ sky130_fd_sc_hd__nand2_1
XFILLER_0_47_297 vssd1 vssd1 vccd1 vccd1 sky130_fd_sc_hd__decap_8
X_5889_ _3272_ _3135_ vssd1 vssd1 vccd1 vccd1 _2289_ sky130_fd_sc_hd__nand2_1
XFILLER_0_35_459 vssd1 vssd1 vccd1 vccd1 sky130_fd_sc_hd__decap_6
XFILLER_0_62_289 vssd1 vssd1 vccd1 vccd1 sky130_fd_sc_hd__decap_3
XFILLER_0_22_109 vssd1 vssd1 vccd1 vccd1 sky130_fd_sc_hd__fill_2
XFILLER_0_43_492 vssd1 vssd1 vccd1 vccd1 sky130_fd_sc_hd__fill_1
Xclkbuf_1_1__f__2970_ clknet_0__2970_ vssd1 vssd1 vccd1 vccd1 clknet_1_1__leaf__2970_
+ sky130_fd_sc_hd__clkbuf_16
XFILLER_0_30_175 vssd1 vssd1 vccd1 vccd1 sky130_fd_sc_hd__decap_6
XFILLER_0_30_197 vssd1 vssd1 vccd1 vccd1 sky130_fd_sc_hd__fill_1
XFILLER_0_26_29 vssd1 vssd1 vccd1 vccd1 sky130_ef_sc_hd__decap_12
XFILLER_0_85_337 vssd1 vssd1 vccd1 vccd1 sky130_ef_sc_hd__decap_12
XFILLER_0_53_223 vssd1 vssd1 vccd1 vccd1 sky130_fd_sc_hd__fill_1
XANTENNA_5 net1 vssd1 vssd1 vccd1 vccd1 sky130_fd_sc_hd__diode_2
XFILLER_0_34_492 vssd1 vssd1 vccd1 vccd1 sky130_fd_sc_hd__decap_3
XTAP_315 vssd1 vccd1 sky130_fd_sc_hd__tapvpwrvgnd_1
XTAP_304 vssd1 vccd1 sky130_fd_sc_hd__tapvpwrvgnd_1
XFILLER_0_21_197 vssd1 vssd1 vccd1 vccd1 sky130_fd_sc_hd__fill_1
XFILLER_0_67_69 vssd1 vssd1 vccd1 vccd1 sky130_ef_sc_hd__decap_12
XTAP_326 vssd1 vccd1 sky130_fd_sc_hd__tapvpwrvgnd_1
XTAP_337 vssd1 vccd1 sky130_fd_sc_hd__tapvpwrvgnd_1
XTAP_348 vssd1 vccd1 sky130_fd_sc_hd__tapvpwrvgnd_1
XTAP_359 vssd1 vccd1 sky130_fd_sc_hd__tapvpwrvgnd_1
XFILLER_0_83_57 vssd1 vssd1 vccd1 vccd1 sky130_ef_sc_hd__decap_12
X_6930_ _0024_ _0185_ vssd1 vssd1 vccd1 vccd1 egd_top.BitStream_buffer.BS_buffer\[110\]
+ sky130_fd_sc_hd__dfxtp_2
XFILLER_0_88_153 vssd1 vssd1 vccd1 vccd1 sky130_ef_sc_hd__decap_12
X_6861_ _2992_ _2993_ clknet_1_0__leaf__2994_ vssd1 vssd1 vccd1 vccd1 _0125_ sky130_fd_sc_hd__o21ai_2
XFILLER_0_88_197 vssd1 vssd1 vccd1 vccd1 sky130_ef_sc_hd__decap_12
X_6792_ _2977_ _2978_ clknet_1_1__leaf__2979_ vssd1 vssd1 vccd1 vccd1 _0071_ sky130_fd_sc_hd__o21ai_2
XFILLER_0_8_103 vssd1 vssd1 vccd1 vccd1 sky130_ef_sc_hd__decap_12
X_5812_ _1129_ _0365_ _2212_ vssd1 vssd1 vccd1 vccd1 _2213_ sky130_fd_sc_hd__o21ai_1
X_5743_ _3107_ _0604_ _3110_ _0608_ _2144_ vssd1 vssd1 vccd1 vccd1 _2145_ sky130_fd_sc_hd__a221oi_1
XFILLER_0_32_83 vssd1 vssd1 vccd1 vccd1 sky130_fd_sc_hd__fill_1
X_5674_ _2065_ _2069_ _2072_ _2075_ vssd1 vssd1 vccd1 vccd1 _2076_ sky130_fd_sc_hd__and4_1
X_4625_ _1031_ _1033_ _1034_ _1035_ vssd1 vssd1 vccd1 vccd1 _1036_ sky130_fd_sc_hd__and4_1
XFILLER_0_44_278 vssd1 vssd1 vccd1 vccd1 sky130_fd_sc_hd__decap_8
X_4556_ _3342_ _3317_ _3331_ _3321_ _0966_ vssd1 vssd1 vccd1 vccd1 _0967_ sky130_fd_sc_hd__a221oi_1
X_3507_ _3008_ vssd1 vssd1 vccd1 vccd1 _3063_ sky130_fd_sc_hd__clkbuf_4
X_4487_ _0504_ egd_top.BitStream_buffer.BS_buffer\[82\] vssd1 vssd1 vccd1 vccd1 _0899_
+ sky130_fd_sc_hd__nand2_1
X_6226_ _2551_ _2547_ vssd1 vssd1 vccd1 vccd1 _2552_ sky130_fd_sc_hd__and2_1
X_6157_ _2504_ vssd1 vssd1 vccd1 vccd1 _0231_ sky130_fd_sc_hd__clkbuf_1
XTAP_871 vssd1 vccd1 sky130_fd_sc_hd__tapvpwrvgnd_1
XTAP_860 vssd1 vccd1 sky130_fd_sc_hd__tapvpwrvgnd_1
XTAP_893 vssd1 vccd1 sky130_fd_sc_hd__tapvpwrvgnd_1
XTAP_882 vssd1 vccd1 sky130_fd_sc_hd__tapvpwrvgnd_1
X_5108_ _0440_ _0787_ vssd1 vssd1 vccd1 vccd1 _1515_ sky130_fd_sc_hd__nand2_1
X_6088_ _2454_ _2455_ vssd1 vssd1 vccd1 vccd1 _2456_ sky130_fd_sc_hd__and2_1
X_5039_ _3204_ _3235_ vssd1 vssd1 vccd1 vccd1 _1446_ sky130_fd_sc_hd__nand2_1
XFILLER_0_82_307 vssd1 vssd1 vccd1 vccd1 sky130_fd_sc_hd__fill_1
XFILLER_0_35_223 vssd1 vssd1 vccd1 vccd1 sky130_fd_sc_hd__fill_1