* NGSPICE file created from egd_top_wrapper.ext - technology: sky130A

* Black-box entry subcircuit for sky130_fd_sc_hd__tapvpwrvgnd_1 abstract view
.subckt sky130_fd_sc_hd__tapvpwrvgnd_1 VGND VPWR
.ends

* Black-box entry subcircuit for sky130_fd_sc_hd__fill_1 abstract view
.subckt sky130_fd_sc_hd__fill_1 VGND VNB VPB VPWR
.ends

* Black-box entry subcircuit for sky130_fd_sc_hd__dfxtp_1 abstract view
.subckt sky130_fd_sc_hd__dfxtp_1 CLK D VGND VNB VPB VPWR Q
.ends

* Black-box entry subcircuit for sky130_fd_sc_hd__decap_6 abstract view
.subckt sky130_fd_sc_hd__decap_6 VGND VNB VPB VPWR
.ends

* Black-box entry subcircuit for sky130_ef_sc_hd__decap_12 abstract view
.subckt sky130_ef_sc_hd__decap_12 VGND VNB VPB VPWR
.ends

* Black-box entry subcircuit for sky130_fd_sc_hd__clkbuf_16 abstract view
.subckt sky130_fd_sc_hd__clkbuf_16 A VGND VNB VPB VPWR X
.ends

* Black-box entry subcircuit for sky130_fd_sc_hd__fill_2 abstract view
.subckt sky130_fd_sc_hd__fill_2 VGND VNB VPB VPWR
.ends

* Black-box entry subcircuit for sky130_fd_sc_hd__buf_2 abstract view
.subckt sky130_fd_sc_hd__buf_2 A VGND VNB VPB VPWR X
.ends

* Black-box entry subcircuit for sky130_fd_sc_hd__buf_1 abstract view
.subckt sky130_fd_sc_hd__buf_1 A VGND VNB VPB VPWR X
.ends

* Black-box entry subcircuit for sky130_fd_sc_hd__decap_4 abstract view
.subckt sky130_fd_sc_hd__decap_4 VGND VNB VPB VPWR
.ends

* Black-box entry subcircuit for sky130_fd_sc_hd__nand2_1 abstract view
.subckt sky130_fd_sc_hd__nand2_1 A B VGND VNB VPB VPWR Y
.ends

* Black-box entry subcircuit for sky130_fd_sc_hd__a22o_1 abstract view
.subckt sky130_fd_sc_hd__a22o_1 A1 A2 B1 B2 VGND VNB VPB VPWR X
.ends

* Black-box entry subcircuit for sky130_fd_sc_hd__and2_1 abstract view
.subckt sky130_fd_sc_hd__and2_1 A B VGND VNB VPB VPWR X
.ends

* Black-box entry subcircuit for sky130_fd_sc_hd__and4_1 abstract view
.subckt sky130_fd_sc_hd__and4_1 A B C D VGND VNB VPB VPWR X
.ends

* Black-box entry subcircuit for sky130_fd_sc_hd__nand2_2 abstract view
.subckt sky130_fd_sc_hd__nand2_2 A B VGND VNB VPB VPWR Y
.ends

* Black-box entry subcircuit for sky130_fd_sc_hd__or2_1 abstract view
.subckt sky130_fd_sc_hd__or2_1 A B VGND VNB VPB VPWR X
.ends

* Black-box entry subcircuit for sky130_fd_sc_hd__xor2_1 abstract view
.subckt sky130_fd_sc_hd__xor2_1 A B VGND VNB VPB VPWR X
.ends

* Black-box entry subcircuit for sky130_fd_sc_hd__a221oi_1 abstract view
.subckt sky130_fd_sc_hd__a221oi_1 A1 A2 B1 B2 C1 VGND VNB VPB VPWR Y
.ends

* Black-box entry subcircuit for sky130_fd_sc_hd__o221a_1 abstract view
.subckt sky130_fd_sc_hd__o221a_1 A1 A2 B1 B2 C1 VGND VNB VPB VPWR X
.ends

* Black-box entry subcircuit for sky130_fd_sc_hd__clkbuf_4 abstract view
.subckt sky130_fd_sc_hd__clkbuf_4 A VGND VNB VPB VPWR X
.ends

* Black-box entry subcircuit for sky130_fd_sc_hd__o22ai_1 abstract view
.subckt sky130_fd_sc_hd__o22ai_1 A1 A2 B1 B2 VGND VNB VPB VPWR Y
.ends

* Black-box entry subcircuit for sky130_fd_sc_hd__decap_8 abstract view
.subckt sky130_fd_sc_hd__decap_8 VGND VNB VPB VPWR
.ends

* Black-box entry subcircuit for sky130_fd_sc_hd__and3_1 abstract view
.subckt sky130_fd_sc_hd__and3_1 A B C VGND VNB VPB VPWR X
.ends

* Black-box entry subcircuit for sky130_fd_sc_hd__o21ai_1 abstract view
.subckt sky130_fd_sc_hd__o21ai_1 A1 A2 B1 VGND VNB VPB VPWR Y
.ends

* Black-box entry subcircuit for sky130_fd_sc_hd__nor2_1 abstract view
.subckt sky130_fd_sc_hd__nor2_1 A B VGND VNB VPB VPWR Y
.ends

* Black-box entry subcircuit for sky130_fd_sc_hd__nand3_1 abstract view
.subckt sky130_fd_sc_hd__nand3_1 A B C VGND VNB VPB VPWR Y
.ends

* Black-box entry subcircuit for sky130_fd_sc_hd__buf_6 abstract view
.subckt sky130_fd_sc_hd__buf_6 A VGND VNB VPB VPWR X
.ends

* Black-box entry subcircuit for sky130_fd_sc_hd__decap_3 abstract view
.subckt sky130_fd_sc_hd__decap_3 VGND VNB VPB VPWR
.ends

* Black-box entry subcircuit for sky130_fd_sc_hd__nor2_4 abstract view
.subckt sky130_fd_sc_hd__nor2_4 A B VGND VNB VPB VPWR Y
.ends

* Black-box entry subcircuit for sky130_fd_sc_hd__mux2_1 abstract view
.subckt sky130_fd_sc_hd__mux2_1 A0 A1 S VGND VNB VPB VPWR X
.ends

* Black-box entry subcircuit for sky130_fd_sc_hd__clkbuf_1 abstract view
.subckt sky130_fd_sc_hd__clkbuf_1 A VGND VNB VPB VPWR X
.ends

* Black-box entry subcircuit for sky130_fd_sc_hd__nor2_2 abstract view
.subckt sky130_fd_sc_hd__nor2_2 A B VGND VNB VPB VPWR Y
.ends

* Black-box entry subcircuit for sky130_fd_sc_hd__o2111a_1 abstract view
.subckt sky130_fd_sc_hd__o2111a_1 A1 A2 B1 C1 D1 VGND VNB VPB VPWR X
.ends

* Black-box entry subcircuit for sky130_fd_sc_hd__inv_2 abstract view
.subckt sky130_fd_sc_hd__inv_2 A VGND VNB VPB VPWR Y
.ends

* Black-box entry subcircuit for sky130_fd_sc_hd__diode_2 abstract view
.subckt sky130_fd_sc_hd__diode_2 DIODE VGND VNB VPB VPWR
.ends

* Black-box entry subcircuit for sky130_fd_sc_hd__a21oi_1 abstract view
.subckt sky130_fd_sc_hd__a21oi_1 A1 A2 B1 VGND VNB VPB VPWR Y
.ends

* Black-box entry subcircuit for sky130_fd_sc_hd__buf_12 abstract view
.subckt sky130_fd_sc_hd__buf_12 A VGND VNB VPB VPWR X
.ends

* Black-box entry subcircuit for sky130_fd_sc_hd__clkbuf_2 abstract view
.subckt sky130_fd_sc_hd__clkbuf_2 A VGND VNB VPB VPWR X
.ends

* Black-box entry subcircuit for sky130_fd_sc_hd__o211a_1 abstract view
.subckt sky130_fd_sc_hd__o211a_1 A1 A2 B1 C1 VGND VNB VPB VPWR X
.ends

* Black-box entry subcircuit for sky130_fd_sc_hd__a221oi_2 abstract view
.subckt sky130_fd_sc_hd__a221oi_2 A1 A2 B1 B2 C1 VGND VNB VPB VPWR Y
.ends

* Black-box entry subcircuit for sky130_fd_sc_hd__dfxtp_2 abstract view
.subckt sky130_fd_sc_hd__dfxtp_2 CLK D VGND VNB VPB VPWR Q
.ends

* Black-box entry subcircuit for sky130_fd_sc_hd__o21ai_4 abstract view
.subckt sky130_fd_sc_hd__o21ai_4 A1 A2 B1 VGND VNB VPB VPWR Y
.ends

* Black-box entry subcircuit for sky130_fd_sc_hd__o21a_1 abstract view
.subckt sky130_fd_sc_hd__o21a_1 A1 A2 B1 VGND VNB VPB VPWR X
.ends

* Black-box entry subcircuit for sky130_fd_sc_hd__o21ai_2 abstract view
.subckt sky130_fd_sc_hd__o21ai_2 A1 A2 B1 VGND VNB VPB VPWR Y
.ends

* Black-box entry subcircuit for sky130_fd_sc_hd__nand2_4 abstract view
.subckt sky130_fd_sc_hd__nand2_4 A B VGND VNB VPB VPWR Y
.ends

* Black-box entry subcircuit for sky130_fd_sc_hd__o21ba_1 abstract view
.subckt sky130_fd_sc_hd__o21ba_1 A1 A2 B1_N VGND VNB VPB VPWR X
.ends

* Black-box entry subcircuit for sky130_fd_sc_hd__buf_4 abstract view
.subckt sky130_fd_sc_hd__buf_4 A VGND VNB VPB VPWR X
.ends

* Black-box entry subcircuit for sky130_fd_sc_hd__a21o_1 abstract view
.subckt sky130_fd_sc_hd__a21o_1 A1 A2 B1 VGND VNB VPB VPWR X
.ends

* Black-box entry subcircuit for sky130_fd_sc_hd__or2_2 abstract view
.subckt sky130_fd_sc_hd__or2_2 A B VGND VNB VPB VPWR X
.ends

* Black-box entry subcircuit for sky130_fd_sc_hd__and3_2 abstract view
.subckt sky130_fd_sc_hd__and3_2 A B C VGND VNB VPB VPWR X
.ends

* Black-box entry subcircuit for sky130_fd_sc_hd__inv_6 abstract view
.subckt sky130_fd_sc_hd__inv_6 A VGND VNB VPB VPWR Y
.ends

* Black-box entry subcircuit for sky130_fd_sc_hd__o211ai_1 abstract view
.subckt sky130_fd_sc_hd__o211ai_1 A1 A2 B1 C1 VGND VNB VPB VPWR Y
.ends

* Black-box entry subcircuit for sky130_fd_sc_hd__o21bai_4 abstract view
.subckt sky130_fd_sc_hd__o21bai_4 A1 A2 B1_N VGND VNB VPB VPWR Y
.ends

* Black-box entry subcircuit for sky130_fd_sc_hd__or4b_1 abstract view
.subckt sky130_fd_sc_hd__or4b_1 A B C D_N VGND VNB VPB VPWR X
.ends

* Black-box entry subcircuit for sky130_fd_sc_hd__o32a_1 abstract view
.subckt sky130_fd_sc_hd__o32a_1 A1 A2 A3 B1 B2 VGND VNB VPB VPWR X
.ends

* Black-box entry subcircuit for sky130_fd_sc_hd__or3_1 abstract view
.subckt sky130_fd_sc_hd__or3_1 A B C VGND VNB VPB VPWR X
.ends

* Black-box entry subcircuit for sky130_fd_sc_hd__o21bai_1 abstract view
.subckt sky130_fd_sc_hd__o21bai_1 A1 A2 B1_N VGND VNB VPB VPWR Y
.ends

* Black-box entry subcircuit for sky130_fd_sc_hd__dlymetal6s2s_1 abstract view
.subckt sky130_fd_sc_hd__dlymetal6s2s_1 A VGND VNB VPB VPWR X
.ends

* Black-box entry subcircuit for sky130_fd_sc_hd__and2_2 abstract view
.subckt sky130_fd_sc_hd__and2_2 A B VGND VNB VPB VPWR X
.ends

* Black-box entry subcircuit for sky130_fd_sc_hd__xnor2_1 abstract view
.subckt sky130_fd_sc_hd__xnor2_1 A B VGND VNB VPB VPWR Y
.ends

* Black-box entry subcircuit for sky130_fd_sc_hd__xor2_4 abstract view
.subckt sky130_fd_sc_hd__xor2_4 A B VGND VNB VPB VPWR X
.ends

* Black-box entry subcircuit for sky130_fd_sc_hd__inv_4 abstract view
.subckt sky130_fd_sc_hd__inv_4 A VGND VNB VPB VPWR Y
.ends

* Black-box entry subcircuit for sky130_fd_sc_hd__or4b_2 abstract view
.subckt sky130_fd_sc_hd__or4b_2 A B C D_N VGND VNB VPB VPWR X
.ends

* Black-box entry subcircuit for sky130_fd_sc_hd__a211o_1 abstract view
.subckt sky130_fd_sc_hd__a211o_1 A1 A2 B1 C1 VGND VNB VPB VPWR X
.ends

* Black-box entry subcircuit for sky130_fd_sc_hd__and4b_1 abstract view
.subckt sky130_fd_sc_hd__and4b_1 A_N B C D VGND VNB VPB VPWR X
.ends

* Black-box entry subcircuit for sky130_fd_sc_hd__a311o_1 abstract view
.subckt sky130_fd_sc_hd__a311o_1 A1 A2 A3 B1 C1 VGND VNB VPB VPWR X
.ends

* Black-box entry subcircuit for sky130_fd_sc_hd__o41a_1 abstract view
.subckt sky130_fd_sc_hd__o41a_1 A1 A2 A3 A4 B1 VGND VNB VPB VPWR X
.ends

* Black-box entry subcircuit for sky130_fd_sc_hd__and3b_1 abstract view
.subckt sky130_fd_sc_hd__and3b_1 A_N B C VGND VNB VPB VPWR X
.ends

* Black-box entry subcircuit for sky130_fd_sc_hd__nand3_4 abstract view
.subckt sky130_fd_sc_hd__nand3_4 A B C VGND VNB VPB VPWR Y
.ends

* Black-box entry subcircuit for sky130_fd_sc_hd__and2b_1 abstract view
.subckt sky130_fd_sc_hd__and2b_1 A_N B VGND VNB VPB VPWR X
.ends

* Black-box entry subcircuit for sky130_fd_sc_hd__dlygate4sd3_1 abstract view
.subckt sky130_fd_sc_hd__dlygate4sd3_1 A VGND VNB VPB VPWR X
.ends

* Black-box entry subcircuit for sky130_fd_sc_hd__or3_2 abstract view
.subckt sky130_fd_sc_hd__or3_2 A B C VGND VNB VPB VPWR X
.ends

* Black-box entry subcircuit for sky130_fd_sc_hd__nand3_2 abstract view
.subckt sky130_fd_sc_hd__nand3_2 A B C VGND VNB VPB VPWR Y
.ends

* Black-box entry subcircuit for sky130_fd_sc_hd__a21bo_1 abstract view
.subckt sky130_fd_sc_hd__a21bo_1 A1 A2 B1_N VGND VNB VPB VPWR X
.ends

* Black-box entry subcircuit for sky130_fd_sc_hd__a31o_1 abstract view
.subckt sky130_fd_sc_hd__a31o_1 A1 A2 A3 B1 VGND VNB VPB VPWR X
.ends

* Black-box entry subcircuit for sky130_fd_sc_hd__a32o_2 abstract view
.subckt sky130_fd_sc_hd__a32o_2 A1 A2 A3 B1 B2 VGND VNB VPB VPWR X
.ends

* Black-box entry subcircuit for sky130_fd_sc_hd__a22o_4 abstract view
.subckt sky130_fd_sc_hd__a22o_4 A1 A2 B1 B2 VGND VNB VPB VPWR X
.ends

* Black-box entry subcircuit for sky130_fd_sc_hd__xnor2_4 abstract view
.subckt sky130_fd_sc_hd__xnor2_4 A B VGND VNB VPB VPWR Y
.ends

* Black-box entry subcircuit for sky130_fd_sc_hd__a21bo_2 abstract view
.subckt sky130_fd_sc_hd__a21bo_2 A1 A2 B1_N VGND VNB VPB VPWR X
.ends

* Black-box entry subcircuit for sky130_fd_sc_hd__nor3_1 abstract view
.subckt sky130_fd_sc_hd__nor3_1 A B C VGND VNB VPB VPWR Y
.ends

* Black-box entry subcircuit for sky130_fd_sc_hd__a21boi_1 abstract view
.subckt sky130_fd_sc_hd__a21boi_1 A1 A2 B1_N VGND VNB VPB VPWR Y
.ends

.subckt egd_top_wrapper la_data_in_47_32[0] la_data_in_47_32[10] la_data_in_47_32[11]
+ la_data_in_47_32[12] la_data_in_47_32[13] la_data_in_47_32[14] la_data_in_47_32[15]
+ la_data_in_47_32[1] la_data_in_47_32[2] la_data_in_47_32[3] la_data_in_47_32[4]
+ la_data_in_47_32[5] la_data_in_47_32[6] la_data_in_47_32[7] la_data_in_47_32[8]
+ la_data_in_47_32[9] la_data_in_49_48[0] la_data_in_49_48[1] la_data_in_65 la_data_out_15_8[0]
+ la_data_out_15_8[1] la_data_out_15_8[2] la_data_out_15_8[3] la_data_out_15_8[4]
+ la_data_out_15_8[5] la_data_out_15_8[6] la_data_out_15_8[7] la_data_out_18_16[0]
+ la_data_out_18_16[1] la_data_out_18_16[2] la_data_out_22_19[0] la_data_out_22_19[1]
+ la_data_out_22_19[2] la_data_out_22_19[3] vccd1 vssd1 wb_clk_i
XTAP_188 vssd1 vccd1 sky130_fd_sc_hd__tapvpwrvgnd_1
XTAP_199 vssd1 vccd1 sky130_fd_sc_hd__tapvpwrvgnd_1
XFILLER_0_27_93 vssd1 vssd1 vccd1 vccd1 sky130_fd_sc_hd__fill_1
X_6914_ net166 _0221_ vssd1 vssd1 vccd1 vccd1 egd_top.BitStream_buffer.BS_buffer\[58\]
+ sky130_fd_sc_hd__dfxtp_1
XFILLER_0_76_133 vssd1 vssd1 vccd1 vccd1 sky130_fd_sc_hd__decap_6
XFILLER_0_9_400 vssd1 vssd1 vccd1 vccd1 sky130_ef_sc_hd__decap_12
Xclkbuf_0__2973_ _2973_ vssd1 vssd1 vccd1 vccd1 clknet_0__2973_ sky130_fd_sc_hd__clkbuf_16
XFILLER_0_76_177 vssd1 vssd1 vccd1 vccd1 sky130_ef_sc_hd__decap_12
XFILLER_0_64_306 vssd1 vssd1 vccd1 vccd1 sky130_fd_sc_hd__fill_2
XFILLER_0_43_81 vssd1 vssd1 vccd1 vccd1 sky130_ef_sc_hd__decap_12
XFILLER_0_57_391 vssd1 vssd1 vccd1 vccd1 sky130_fd_sc_hd__fill_1
XFILLER_0_9_466 vssd1 vssd1 vccd1 vccd1 sky130_fd_sc_hd__fill_1
XFILLER_0_17_211 vssd1 vssd1 vccd1 vccd1 sky130_fd_sc_hd__fill_2
XFILLER_0_17_222 vssd1 vssd1 vccd1 vccd1 sky130_fd_sc_hd__fill_2
X_3988_ _0425_ vssd1 vssd1 vccd1 vccd1 _0426_ sky130_fd_sc_hd__buf_2
X_6776_ clknet_1_1__leaf__2958_ vssd1 vssd1 vccd1 vccd1 _2969_ sky130_fd_sc_hd__buf_1
XFILLER_0_9_499 vssd1 vssd1 vccd1 vccd1 sky130_fd_sc_hd__decap_4
XFILLER_0_9_488 vssd1 vssd1 vccd1 vccd1 sky130_fd_sc_hd__decap_4
XFILLER_0_17_244 vssd1 vssd1 vccd1 vccd1 sky130_fd_sc_hd__decap_6
X_5727_ _0561_ egd_top.BitStream_buffer.BS_buffer\[16\] vssd1 vssd1 vccd1 vccd1 _2153_
+ sky130_fd_sc_hd__nand2_1
X_5658_ _3319_ _3381_ _3321_ _3376_ vssd1 vssd1 vccd1 vccd1 _2084_ sky130_fd_sc_hd__a22o_1
XFILLER_0_17_299 vssd1 vssd1 vccd1 vccd1 sky130_fd_sc_hd__fill_1
X_4609_ _0543_ _0532_ vssd1 vssd1 vccd1 vccd1 _1044_ sky130_fd_sc_hd__nand2_1
X_5589_ _2000_ _2015_ vssd1 vssd1 vccd1 vccd1 _2016_ sky130_fd_sc_hd__and2_1
XFILLER_0_7_81 vssd1 vssd1 vccd1 vccd1 sky130_fd_sc_hd__decap_4
XFILLER_0_67_111 vssd1 vssd1 vccd1 vccd1 sky130_fd_sc_hd__fill_1
XFILLER_0_70_309 vssd1 vssd1 vccd1 vccd1 sky130_fd_sc_hd__fill_2
XFILLER_0_23_225 vssd1 vssd1 vccd1 vccd1 sky130_fd_sc_hd__fill_2
XFILLER_0_48_15 vssd1 vssd1 vccd1 vccd1 sky130_ef_sc_hd__decap_12
XFILLER_0_3_39 vssd1 vssd1 vccd1 vccd1 sky130_ef_sc_hd__decap_12
X_4960_ _1381_ _1385_ _1388_ _1391_ vssd1 vssd1 vccd1 vccd1 _1392_ sky130_fd_sc_hd__and4_1
XFILLER_0_58_133 vssd1 vssd1 vccd1 vccd1 sky130_fd_sc_hd__decap_6
XFILLER_0_86_475 vssd1 vssd1 vccd1 vccd1 sky130_fd_sc_hd__fill_1
X_4891_ _3160_ _0632_ vssd1 vssd1 vccd1 vccd1 _1323_ sky130_fd_sc_hd__nand2_1
X_3911_ _3171_ _0328_ vssd1 vssd1 vccd1 vccd1 _0349_ sky130_fd_sc_hd__nand2_2
XFILLER_0_73_125 vssd1 vssd1 vccd1 vccd1 sky130_ef_sc_hd__decap_12
XFILLER_0_58_188 vssd1 vssd1 vccd1 vccd1 sky130_fd_sc_hd__fill_1
XFILLER_0_58_177 vssd1 vssd1 vccd1 vccd1 sky130_fd_sc_hd__decap_4
X_6630_ _2884_ _2897_ vssd1 vssd1 vccd1 vccd1 _2917_ sky130_fd_sc_hd__nand2_1
XFILLER_0_13_51 vssd1 vssd1 vccd1 vccd1 sky130_fd_sc_hd__decap_4
X_3842_ egd_top.BitStream_buffer.BS_buffer\[99\] vssd1 vssd1 vccd1 vccd1 _3376_ sky130_fd_sc_hd__buf_2
XFILLER_0_73_169 vssd1 vssd1 vccd1 vccd1 sky130_ef_sc_hd__decap_12
X_6561_ _2731_ _2852_ _2826_ _2853_ vssd1 vssd1 vccd1 vccd1 _2854_ sky130_fd_sc_hd__a22o_1
XFILLER_0_39_391 vssd1 vssd1 vccd1 vccd1 sky130_fd_sc_hd__fill_1
X_3773_ _3144_ _3277_ vssd1 vssd1 vccd1 vccd1 _3307_ sky130_fd_sc_hd__and2_1
X_5512_ _1444_ _3186_ vssd1 vssd1 vccd1 vccd1 _1939_ sky130_fd_sc_hd__or2_1
X_6492_ egd_top.BitStream_buffer.BitStream_buffer_output\[12\] egd_top.BitStream_buffer.BitStream_buffer_output\[11\]
+ vssd1 vssd1 vccd1 vccd1 _2787_ sky130_fd_sc_hd__xor2_1
X_5443_ _0410_ _0330_ _0722_ _0334_ _1870_ vssd1 vssd1 vccd1 vccd1 _1871_ sky130_fd_sc_hd__a221oi_1
X_5374_ _0570_ _0589_ _0772_ _0592_ _1802_ vssd1 vssd1 vccd1 vccd1 _1803_ sky130_fd_sc_hd__o221a_1
X_4325_ _0532_ _0531_ _0363_ _0535_ _0761_ vssd1 vssd1 vccd1 vccd1 _0762_ sky130_fd_sc_hd__a221oi_1
X_4256_ egd_top.BitStream_buffer.BS_buffer\[110\] vssd1 vssd1 vccd1 vccd1 _0693_ sky130_fd_sc_hd__clkbuf_4
X_4187_ _3132_ _3130_ _0623_ _3138_ vssd1 vssd1 vccd1 vccd1 _0624_ sky130_fd_sc_hd__o22ai_1
XFILLER_0_49_111 vssd1 vssd1 vccd1 vccd1 sky130_fd_sc_hd__fill_1
XFILLER_0_77_497 vssd1 vssd1 vccd1 vccd1 sky130_fd_sc_hd__decap_6
XFILLER_0_37_317 vssd1 vssd1 vccd1 vccd1 sky130_fd_sc_hd__fill_2
XFILLER_0_9_285 vssd1 vssd1 vccd1 vccd1 sky130_fd_sc_hd__fill_1
XFILLER_0_18_29 vssd1 vssd1 vccd1 vccd1 sky130_ef_sc_hd__decap_12
XFILLER_0_87_217 vssd1 vssd1 vccd1 vccd1 sky130_fd_sc_hd__decap_6
XFILLER_0_28_306 vssd1 vssd1 vccd1 vccd1 sky130_fd_sc_hd__fill_2
XFILLER_0_55_125 vssd1 vssd1 vccd1 vccd1 sky130_ef_sc_hd__decap_12
XFILLER_0_50_27 vssd1 vssd1 vccd1 vccd1 sky130_fd_sc_hd__fill_1
XFILLER_0_55_169 vssd1 vssd1 vccd1 vccd1 sky130_fd_sc_hd__decap_8
XFILLER_0_70_139 vssd1 vssd1 vccd1 vccd1 sky130_fd_sc_hd__fill_1
XFILLER_0_3_439 vssd1 vssd1 vccd1 vccd1 sky130_fd_sc_hd__fill_1
XFILLER_0_59_69 vssd1 vssd1 vccd1 vccd1 sky130_ef_sc_hd__decap_12
X_4110_ _0489_ _0507_ _0527_ _0547_ vssd1 vssd1 vccd1 vccd1 _0548_ sky130_fd_sc_hd__and4_1
X_5090_ _0422_ _0889_ vssd1 vssd1 vccd1 vccd1 _1521_ sky130_fd_sc_hd__nand2_1
XFILLER_0_75_57 vssd1 vssd1 vccd1 vccd1 sky130_ef_sc_hd__decap_12
X_4041_ _0478_ vssd1 vssd1 vccd1 vccd1 _0479_ sky130_fd_sc_hd__buf_2
X_5992_ _2412_ _3035_ _3049_ vssd1 vssd1 vccd1 vccd1 _2413_ sky130_fd_sc_hd__and3_1
X_4943_ _3059_ _3406_ _3062_ _3410_ _1374_ vssd1 vssd1 vccd1 vccd1 _1375_ sky130_fd_sc_hd__a221oi_1
XFILLER_0_24_83 vssd1 vssd1 vccd1 vccd1 sky130_fd_sc_hd__fill_1
XFILLER_0_24_94 vssd1 vssd1 vccd1 vccd1 sky130_fd_sc_hd__fill_1
XFILLER_0_6_200 vssd1 vssd1 vccd1 vccd1 sky130_fd_sc_hd__fill_2
X_6613_ _2885_ _2892_ _2758_ vssd1 vssd1 vccd1 vccd1 _2900_ sky130_fd_sc_hd__o21ai_1
X_4874_ _0579_ egd_top.BitStream_buffer.BS_buffer\[13\] vssd1 vssd1 vccd1 vccd1 _1307_
+ sky130_fd_sc_hd__nand2_1
XFILLER_0_74_489 vssd1 vssd1 vccd1 vccd1 sky130_ef_sc_hd__decap_12
X_3825_ _3128_ _3346_ vssd1 vssd1 vccd1 vccd1 _3359_ sky130_fd_sc_hd__and2_1
X_3756_ _3136_ _3278_ vssd1 vssd1 vccd1 vccd1 _3290_ sky130_fd_sc_hd__nand2_2
X_6544_ _2775_ _2768_ vssd1 vssd1 vccd1 vccd1 _2837_ sky130_fd_sc_hd__nor2_1
X_6475_ _2744_ _2287_ _2711_ vssd1 vssd1 vccd1 vccd1 _2770_ sky130_fd_sc_hd__nand3_1
XFILLER_0_42_353 vssd1 vssd1 vccd1 vccd1 sky130_fd_sc_hd__decap_8
XFILLER_0_71_3 vssd1 vssd1 vccd1 vccd1 sky130_ef_sc_hd__decap_12
X_5426_ _3065_ _3348_ _3068_ _3352_ _1853_ vssd1 vssd1 vccd1 vccd1 _1854_ sky130_fd_sc_hd__a221oi_1
X_3687_ _3220_ vssd1 vssd1 vccd1 vccd1 _3221_ sky130_fd_sc_hd__buf_6
XFILLER_0_42_386 vssd1 vssd1 vccd1 vccd1 sky130_fd_sc_hd__decap_6
X_5357_ _0519_ _0539_ vssd1 vssd1 vccd1 vccd1 _1786_ sky130_fd_sc_hd__nand2_1
X_4308_ egd_top.BitStream_buffer.BS_buffer\[26\] vssd1 vssd1 vccd1 vccd1 _0745_ sky130_fd_sc_hd__clkbuf_4
X_5288_ _3376_ _3281_ _3391_ _3285_ _1716_ vssd1 vssd1 vccd1 vccd1 _1717_ sky130_fd_sc_hd__a221oi_1
X_4239_ _0660_ _0667_ _0672_ _0675_ vssd1 vssd1 vccd1 vccd1 _0676_ sky130_fd_sc_hd__and4_1
XFILLER_0_84_209 vssd1 vssd1 vccd1 vccd1 sky130_ef_sc_hd__decap_12
XFILLER_0_77_261 vssd1 vssd1 vccd1 vccd1 sky130_ef_sc_hd__decap_12
XFILLER_0_65_401 vssd1 vssd1 vccd1 vccd1 sky130_ef_sc_hd__decap_12
XFILLER_0_65_445 vssd1 vssd1 vccd1 vccd1 sky130_fd_sc_hd__decap_3
XFILLER_0_18_372 vssd1 vssd1 vccd1 vccd1 sky130_fd_sc_hd__fill_1
XFILLER_0_18_383 vssd1 vssd1 vccd1 vccd1 sky130_fd_sc_hd__fill_2
XFILLER_0_52_139 vssd1 vssd1 vccd1 vccd1 sky130_fd_sc_hd__fill_1
XFILLER_0_60_194 vssd1 vssd1 vccd1 vccd1 sky130_fd_sc_hd__fill_2
XFILLER_0_29_39 vssd1 vssd1 vccd1 vccd1 sky130_ef_sc_hd__decap_12
XFILLER_0_45_27 vssd1 vssd1 vccd1 vccd1 sky130_ef_sc_hd__decap_12
XFILLER_0_61_15 vssd1 vssd1 vccd1 vccd1 sky130_ef_sc_hd__decap_12
XFILLER_0_0_29 vssd1 vssd1 vccd1 vccd1 sky130_fd_sc_hd__decap_8
XFILLER_0_56_456 vssd1 vssd1 vccd1 vccd1 sky130_fd_sc_hd__decap_4
XFILLER_0_9_27 vssd1 vssd1 vccd1 vccd1 sky130_ef_sc_hd__decap_12
X_3610_ _3143_ _3105_ vssd1 vssd1 vccd1 vccd1 _3144_ sky130_fd_sc_hd__nor2_4
X_4590_ _0722_ _0437_ _0876_ _0441_ _1024_ vssd1 vssd1 vccd1 vccd1 _1025_ sky130_fd_sc_hd__a221oi_1
XFILLER_0_3_203 vssd1 vssd1 vccd1 vccd1 sky130_fd_sc_hd__fill_2
X_3541_ net13 _3081_ _3052_ vssd1 vssd1 vccd1 vccd1 _3082_ sky130_fd_sc_hd__mux2_1
XFILLER_0_10_41 vssd1 vssd1 vccd1 vccd1 sky130_ef_sc_hd__decap_12
XFILLER_0_51_161 vssd1 vssd1 vccd1 vccd1 sky130_fd_sc_hd__decap_6
X_6260_ _2599_ vssd1 vssd1 vccd1 vccd1 _0199_ sky130_fd_sc_hd__clkbuf_1
X_3472_ egd_top.BitStream_buffer.pc_previous\[0\] egd_top.BitStream_buffer.pc_previous\[1\]
+ egd_top.BitStream_buffer.pc_previous\[2\] egd_top.BitStream_buffer.pc_previous\[3\]
+ vssd1 vssd1 vccd1 vccd1 _3026_ sky130_fd_sc_hd__and4_1
X_5211_ _0460_ _0414_ vssd1 vssd1 vccd1 vccd1 _1641_ sky130_fd_sc_hd__or2_1
X_6191_ net10 _0452_ _2524_ vssd1 vssd1 vccd1 vccd1 _2551_ sky130_fd_sc_hd__mux2_1
X_5142_ _3123_ _3156_ _1571_ vssd1 vssd1 vccd1 vccd1 _1572_ sky130_fd_sc_hd__o21ai_1
X_5073_ _1502_ _1503_ vssd1 vssd1 vccd1 vccd1 _1504_ sky130_fd_sc_hd__nand2_1
X_4024_ _0461_ vssd1 vssd1 vccd1 vccd1 _0462_ sky130_fd_sc_hd__clkbuf_4
XFILLER_0_35_93 vssd1 vssd1 vccd1 vccd1 sky130_ef_sc_hd__decap_12
X_5975_ _1058_ _0588_ _0924_ _0591_ _2398_ vssd1 vssd1 vccd1 vccd1 _2399_ sky130_fd_sc_hd__o221a_1
X_4926_ _3391_ _3329_ _0686_ _3333_ _1357_ vssd1 vssd1 vccd1 vccd1 _1358_ sky130_fd_sc_hd__a221oi_1
XFILLER_0_47_456 vssd1 vssd1 vccd1 vccd1 sky130_fd_sc_hd__decap_4
XFILLER_0_74_264 vssd1 vssd1 vccd1 vccd1 sky130_fd_sc_hd__fill_2
XFILLER_0_74_253 vssd1 vssd1 vccd1 vccd1 sky130_fd_sc_hd__decap_4
XFILLER_0_62_404 vssd1 vssd1 vccd1 vccd1 sky130_fd_sc_hd__decap_4
X_4857_ _0503_ _0471_ vssd1 vssd1 vccd1 vccd1 _1290_ sky130_fd_sc_hd__nand2_1
XFILLER_0_7_520 vssd1 vssd1 vccd1 vccd1 sky130_fd_sc_hd__decap_8
XFILLER_0_51_81 vssd1 vssd1 vccd1 vccd1 sky130_ef_sc_hd__decap_12
XFILLER_0_62_437 vssd1 vssd1 vccd1 vccd1 sky130_fd_sc_hd__decap_4
X_3808_ _3293_ _3311_ _3325_ _3341_ vssd1 vssd1 vccd1 vccd1 _3342_ sky130_fd_sc_hd__and4_1
X_4788_ _1212_ _1215_ _1218_ _1220_ vssd1 vssd1 vccd1 vccd1 _1221_ sky130_fd_sc_hd__and4_1
X_6527_ _2818_ _2820_ vssd1 vssd1 vccd1 vccd1 _2821_ sky130_fd_sc_hd__nand2_1
X_3739_ _3096_ _3262_ _3099_ _3265_ _3272_ vssd1 vssd1 vccd1 vccd1 _3273_ sky130_fd_sc_hd__a221oi_1
X_6458_ _2728_ _2712_ vssd1 vssd1 vccd1 vccd1 _2753_ sky130_fd_sc_hd__nor2_2
X_6389_ _2685_ _2667_ vssd1 vssd1 vccd1 vccd1 _2686_ sky130_fd_sc_hd__and2_1
X_5409_ _1828_ _1831_ _1834_ _1836_ vssd1 vssd1 vccd1 vccd1 _1837_ sky130_fd_sc_hd__and4_1
XFILLER_0_65_231 vssd1 vssd1 vccd1 vccd1 sky130_fd_sc_hd__fill_1
XFILLER_0_38_467 vssd1 vssd1 vccd1 vccd1 sky130_fd_sc_hd__fill_2
XFILLER_0_80_245 vssd1 vssd1 vccd1 vccd1 sky130_fd_sc_hd__decap_6
XFILLER_0_80_289 vssd1 vssd1 vccd1 vccd1 sky130_ef_sc_hd__decap_12
XTAP_507 vssd1 vccd1 sky130_fd_sc_hd__tapvpwrvgnd_1
XTAP_518 vssd1 vccd1 sky130_fd_sc_hd__tapvpwrvgnd_1
XTAP_529 vssd1 vccd1 sky130_fd_sc_hd__tapvpwrvgnd_1
XFILLER_0_56_15 vssd1 vssd1 vccd1 vccd1 sky130_ef_sc_hd__decap_12
XFILLER_0_88_389 vssd1 vssd1 vccd1 vccd1 sky130_fd_sc_hd__decap_3
XFILLER_0_29_423 vssd1 vssd1 vccd1 vccd1 sky130_ef_sc_hd__decap_12
X_5760_ _0593_ _3217_ _0563_ _3220_ _2184_ vssd1 vssd1 vccd1 vccd1 _2185_ sky130_fd_sc_hd__a221oi_1
X_5691_ _0417_ _0390_ _2116_ vssd1 vssd1 vccd1 vccd1 _2117_ sky130_fd_sc_hd__o21ai_1
X_4711_ _0429_ _0402_ _1142_ _1143_ _1144_ vssd1 vssd1 vccd1 vccd1 _1145_ sky130_fd_sc_hd__o2111a_1
XFILLER_0_56_253 vssd1 vssd1 vccd1 vccd1 sky130_ef_sc_hd__decap_12
XFILLER_0_71_223 vssd1 vssd1 vccd1 vccd1 sky130_fd_sc_hd__fill_1
XFILLER_0_16_139 vssd1 vssd1 vccd1 vccd1 sky130_fd_sc_hd__fill_1
X_4642_ _3132_ _3187_ vssd1 vssd1 vccd1 vccd1 _1076_ sky130_fd_sc_hd__or2_1
XFILLER_0_56_286 vssd1 vssd1 vccd1 vccd1 sky130_fd_sc_hd__decap_3
XFILLER_0_56_297 vssd1 vssd1 vccd1 vccd1 sky130_fd_sc_hd__fill_1
XFILLER_0_21_51 vssd1 vssd1 vccd1 vccd1 sky130_fd_sc_hd__decap_4
XFILLER_0_71_289 vssd1 vssd1 vccd1 vccd1 sky130_fd_sc_hd__fill_2
X_4573_ _0394_ _0448_ vssd1 vssd1 vccd1 vccd1 _1008_ sky130_fd_sc_hd__nand2_1
X_6312_ egd_top.BitStream_buffer.pc_previous\[2\] egd_top.BitStream_buffer.exp_golomb_len\[2\]
+ vssd1 vssd1 vccd1 vccd1 _2636_ sky130_fd_sc_hd__or2_1
X_3524_ net2 _3068_ _3053_ vssd1 vssd1 vccd1 vccd1 _3069_ sky130_fd_sc_hd__mux2_1
XFILLER_0_24_194 vssd1 vssd1 vccd1 vccd1 sky130_fd_sc_hd__fill_2
XFILLER_0_12_356 vssd1 vssd1 vccd1 vccd1 sky130_fd_sc_hd__decap_8
X_3455_ _3008_ egd_top.BitStream_buffer.pc\[1\] vssd1 vssd1 vccd1 vccd1 _3009_ sky130_fd_sc_hd__nand2_2
X_6243_ net10 _3209_ _2560_ vssd1 vssd1 vccd1 vccd1 _2587_ sky130_fd_sc_hd__mux2_1
X_6174_ _2539_ _2533_ vssd1 vssd1 vccd1 vccd1 _2540_ sky130_fd_sc_hd__and2_1
XFILLER_0_34_3 vssd1 vssd1 vccd1 vccd1 sky130_ef_sc_hd__decap_12
X_5125_ _1058_ _0583_ vssd1 vssd1 vccd1 vccd1 _1556_ sky130_fd_sc_hd__or2_1
X_5056_ _3056_ _3349_ _3059_ _3353_ _1486_ vssd1 vssd1 vccd1 vccd1 _1487_ sky130_fd_sc_hd__a221oi_1
X_4007_ _3157_ _3012_ vssd1 vssd1 vccd1 vccd1 _0445_ sky130_fd_sc_hd__and2_1
XFILLER_0_1_50 vssd1 vssd1 vccd1 vccd1 sky130_fd_sc_hd__decap_6
X_6810__32 clknet_1_0__leaf__2972_ vssd1 vssd1 vccd1 vccd1 net66 sky130_fd_sc_hd__inv_2
X_5958_ _0518_ _0707_ vssd1 vssd1 vccd1 vccd1 _2382_ sky130_fd_sc_hd__nand2_1
X_4909_ _0643_ _3253_ _1340_ vssd1 vssd1 vccd1 vccd1 _1341_ sky130_fd_sc_hd__o21ai_1
XFILLER_0_35_415 vssd1 vssd1 vccd1 vccd1 sky130_fd_sc_hd__decap_4
X_5889_ _2304_ _2307_ _2310_ _2312_ vssd1 vssd1 vccd1 vccd1 _2313_ sky130_fd_sc_hd__and4_1
XFILLER_0_62_234 vssd1 vssd1 vccd1 vccd1 sky130_fd_sc_hd__fill_1
XFILLER_0_15_161 vssd1 vssd1 vccd1 vccd1 sky130_fd_sc_hd__decap_6
XFILLER_0_22_109 vssd1 vssd1 vccd1 vccd1 sky130_fd_sc_hd__decap_6
Xclkbuf_1_1__f__2970_ clknet_0__2970_ vssd1 vssd1 vccd1 vccd1 clknet_1_1__leaf__2970_
+ sky130_fd_sc_hd__clkbuf_16
XFILLER_0_30_197 vssd1 vssd1 vccd1 vccd1 sky130_fd_sc_hd__fill_1
XFILLER_0_26_29 vssd1 vssd1 vccd1 vccd1 sky130_ef_sc_hd__decap_12
XFILLER_0_85_337 vssd1 vssd1 vccd1 vccd1 sky130_ef_sc_hd__decap_12
XFILLER_0_26_437 vssd1 vssd1 vccd1 vccd1 sky130_fd_sc_hd__decap_4
XFILLER_0_53_278 vssd1 vssd1 vccd1 vccd1 sky130_fd_sc_hd__fill_2
XANTENNA_5 net5 vssd1 vssd1 vccd1 vccd1 sky130_fd_sc_hd__diode_2
XTAP_315 vssd1 vccd1 sky130_fd_sc_hd__tapvpwrvgnd_1
XTAP_304 vssd1 vccd1 sky130_fd_sc_hd__tapvpwrvgnd_1
XFILLER_0_67_69 vssd1 vssd1 vccd1 vccd1 sky130_ef_sc_hd__decap_12
XTAP_326 vssd1 vccd1 sky130_fd_sc_hd__tapvpwrvgnd_1
XTAP_337 vssd1 vccd1 sky130_fd_sc_hd__tapvpwrvgnd_1
XTAP_348 vssd1 vccd1 sky130_fd_sc_hd__tapvpwrvgnd_1
XTAP_359 vssd1 vccd1 sky130_fd_sc_hd__tapvpwrvgnd_1
XFILLER_0_83_57 vssd1 vssd1 vccd1 vccd1 sky130_ef_sc_hd__decap_12
X_6930_ net182 _0237_ vssd1 vssd1 vccd1 vccd1 egd_top.BitStream_buffer.BS_buffer\[42\]
+ sky130_fd_sc_hd__dfxtp_1
XFILLER_0_88_153 vssd1 vssd1 vccd1 vccd1 sky130_ef_sc_hd__decap_12
X_6861_ net113 _0168_ vssd1 vssd1 vccd1 vccd1 egd_top.BitStream_buffer.BS_buffer\[88\]
+ sky130_fd_sc_hd__dfxtp_1
XFILLER_0_88_197 vssd1 vssd1 vccd1 vccd1 sky130_ef_sc_hd__decap_12
XFILLER_0_76_337 vssd1 vssd1 vccd1 vccd1 sky130_ef_sc_hd__decap_12
X_5812_ _1012_ _0383_ _0427_ _0387_ _2236_ vssd1 vssd1 vccd1 vccd1 _2237_ sky130_fd_sc_hd__a221oi_1
XFILLER_0_8_136 vssd1 vssd1 vccd1 vccd1 sky130_fd_sc_hd__decap_4
XFILLER_0_29_253 vssd1 vssd1 vccd1 vccd1 sky130_ef_sc_hd__decap_12
X_5743_ _2168_ _3102_ _2984_ vssd1 vssd1 vccd1 vccd1 _2169_ sky130_fd_sc_hd__a21oi_1
XFILLER_0_32_83 vssd1 vssd1 vccd1 vccd1 sky130_fd_sc_hd__fill_1
X_5674_ _0956_ _3386_ _2097_ _2098_ _2099_ vssd1 vssd1 vccd1 vccd1 _2100_ sky130_fd_sc_hd__o2111a_1
XFILLER_0_44_245 vssd1 vssd1 vccd1 vccd1 sky130_fd_sc_hd__fill_2
X_4625_ _0493_ _0601_ _0497_ _0604_ _1059_ vssd1 vssd1 vccd1 vccd1 _1060_ sky130_fd_sc_hd__a221oi_1
X_4556_ _0987_ _3387_ _0988_ _0989_ _0990_ vssd1 vssd1 vccd1 vccd1 _0991_ sky130_fd_sc_hd__o2111a_1
XFILLER_0_12_131 vssd1 vssd1 vccd1 vccd1 sky130_fd_sc_hd__decap_8
X_3507_ egd_top.BitStream_buffer.BS_buffer\[113\] vssd1 vssd1 vccd1 vccd1 _3056_ sky130_fd_sc_hd__buf_2
X_4487_ _0775_ _0589_ _0594_ _0592_ _0922_ vssd1 vssd1 vccd1 vccd1 _0923_ sky130_fd_sc_hd__o221a_1
X_3438_ net31 _2992_ vssd1 vssd1 vccd1 vccd1 _2993_ sky130_fd_sc_hd__nor2_1
X_6226_ _2575_ vssd1 vssd1 vccd1 vccd1 _0209_ sky130_fd_sc_hd__clkbuf_1
XTAP_871 vssd1 vccd1 sky130_fd_sc_hd__tapvpwrvgnd_1
XTAP_860 vssd1 vccd1 sky130_fd_sc_hd__tapvpwrvgnd_1
X_6157_ net6 _0448_ _2525_ vssd1 vssd1 vccd1 vccd1 _2528_ sky130_fd_sc_hd__mux2_1
XTAP_893 vssd1 vccd1 sky130_fd_sc_hd__tapvpwrvgnd_1
XTAP_882 vssd1 vccd1 sky130_fd_sc_hd__tapvpwrvgnd_1
X_5108_ _0744_ _0500_ _1538_ vssd1 vssd1 vccd1 vccd1 _1539_ sky130_fd_sc_hd__o21ai_1
X_6088_ _2479_ vssd1 vssd1 vccd1 vccd1 _0251_ sky130_fd_sc_hd__clkbuf_1
X_5039_ _0834_ _3288_ _0975_ _3291_ vssd1 vssd1 vccd1 vccd1 _1470_ sky130_fd_sc_hd__o22ai_1
XFILLER_0_67_337 vssd1 vssd1 vccd1 vccd1 sky130_fd_sc_hd__decap_3
XFILLER_0_82_307 vssd1 vssd1 vccd1 vccd1 sky130_fd_sc_hd__fill_1
XFILLER_0_75_381 vssd1 vssd1 vccd1 vccd1 sky130_fd_sc_hd__decap_8
Xoutput20 net20 vssd1 vssd1 vccd1 vccd1 la_data_out_15_8[0] sky130_fd_sc_hd__buf_12
Xoutput31 net31 vssd1 vssd1 vccd1 vccd1 la_data_out_22_19[0] sky130_fd_sc_hd__buf_12
XFILLER_0_37_39 vssd1 vssd1 vccd1 vccd1 sky130_ef_sc_hd__decap_12
XFILLER_0_53_27 vssd1 vssd1 vccd1 vccd1 sky130_ef_sc_hd__decap_12
XFILLER_0_85_167 vssd1 vssd1 vccd1 vccd1 sky130_fd_sc_hd__fill_1
XPHY_170 vssd1 vssd1 vccd1 vccd1 sky130_fd_sc_hd__decap_3
XFILLER_0_81_373 vssd1 vssd1 vccd1 vccd1 sky130_ef_sc_hd__decap_12
XFILLER_0_26_267 vssd1 vssd1 vccd1 vccd1 sky130_fd_sc_hd__fill_1
X_4410_ egd_top.BitStream_buffer.BS_buffer\[105\] vssd1 vssd1 vccd1 vccd1 _0846_ sky130_fd_sc_hd__inv_2
XFILLER_0_1_312 vssd1 vssd1 vccd1 vccd1 sky130_fd_sc_hd__fill_2
X_5390_ _3173_ egd_top.BitStream_buffer.BS_buffer\[78\] vssd1 vssd1 vccd1 vccd1 _1818_
+ sky130_fd_sc_hd__nand2_1
X_4341_ egd_top.BitStream_buffer.BS_buffer\[14\] vssd1 vssd1 vccd1 vccd1 _0778_ sky130_fd_sc_hd__inv_2
X_4272_ egd_top.BitStream_buffer.BS_buffer\[36\] vssd1 vssd1 vccd1 vccd1 _0709_ sky130_fd_sc_hd__clkbuf_4
X_6708__100 clknet_1_0__leaf__2962_ vssd1 vssd1 vccd1 vccd1 net134 sky130_fd_sc_hd__inv_2
X_6011_ _2426_ vssd1 vssd1 vccd1 vccd1 _0275_ sky130_fd_sc_hd__clkbuf_1
XTAP_178 vssd1 vccd1 sky130_fd_sc_hd__tapvpwrvgnd_1