* NGSPICE file created from egd_top_wrapper.ext - technology: sky130A

* Black-box entry subcircuit for sky130_fd_sc_hd__tapvpwrvgnd_1 abstract view
.subckt sky130_fd_sc_hd__tapvpwrvgnd_1 VGND VPWR
.ends

* Black-box entry subcircuit for sky130_ef_sc_hd__decap_12 abstract view
.subckt sky130_ef_sc_hd__decap_12 VGND VNB VPB VPWR
.ends

* Black-box entry subcircuit for sky130_fd_sc_hd__o21ai_2 abstract view
.subckt sky130_fd_sc_hd__o21ai_2 A1 A2 B1 VGND VNB VPB VPWR Y
.ends

* Black-box entry subcircuit for sky130_fd_sc_hd__decap_6 abstract view
.subckt sky130_fd_sc_hd__decap_6 VGND VNB VPB VPWR
.ends

* Black-box entry subcircuit for sky130_fd_sc_hd__fill_2 abstract view
.subckt sky130_fd_sc_hd__fill_2 VGND VNB VPB VPWR
.ends

* Black-box entry subcircuit for sky130_fd_sc_hd__clkbuf_2 abstract view
.subckt sky130_fd_sc_hd__clkbuf_2 A VGND VNB VPB VPWR X
.ends

* Black-box entry subcircuit for sky130_fd_sc_hd__nor2_1 abstract view
.subckt sky130_fd_sc_hd__nor2_1 A B VGND VNB VPB VPWR Y
.ends

* Black-box entry subcircuit for sky130_fd_sc_hd__o2111a_1 abstract view
.subckt sky130_fd_sc_hd__o2111a_1 A1 A2 B1 C1 D1 VGND VNB VPB VPWR X
.ends

* Black-box entry subcircuit for sky130_fd_sc_hd__a221oi_1 abstract view
.subckt sky130_fd_sc_hd__a221oi_1 A1 A2 B1 B2 C1 VGND VNB VPB VPWR Y
.ends

* Black-box entry subcircuit for sky130_fd_sc_hd__o21ai_1 abstract view
.subckt sky130_fd_sc_hd__o21ai_1 A1 A2 B1 VGND VNB VPB VPWR Y
.ends

* Black-box entry subcircuit for sky130_fd_sc_hd__fill_1 abstract view
.subckt sky130_fd_sc_hd__fill_1 VGND VNB VPB VPWR
.ends

* Black-box entry subcircuit for sky130_fd_sc_hd__decap_4 abstract view
.subckt sky130_fd_sc_hd__decap_4 VGND VNB VPB VPWR
.ends

* Black-box entry subcircuit for sky130_fd_sc_hd__nand2_1 abstract view
.subckt sky130_fd_sc_hd__nand2_1 A B VGND VNB VPB VPWR Y
.ends

* Black-box entry subcircuit for sky130_fd_sc_hd__buf_2 abstract view
.subckt sky130_fd_sc_hd__buf_2 A VGND VNB VPB VPWR X
.ends

* Black-box entry subcircuit for sky130_fd_sc_hd__inv_2 abstract view
.subckt sky130_fd_sc_hd__inv_2 A VGND VNB VPB VPWR Y
.ends

* Black-box entry subcircuit for sky130_fd_sc_hd__and2_1 abstract view
.subckt sky130_fd_sc_hd__and2_1 A B VGND VNB VPB VPWR X
.ends

* Black-box entry subcircuit for sky130_fd_sc_hd__dfxtp_1 abstract view
.subckt sky130_fd_sc_hd__dfxtp_1 CLK D VGND VNB VPB VPWR Q
.ends

* Black-box entry subcircuit for sky130_fd_sc_hd__o32a_1 abstract view
.subckt sky130_fd_sc_hd__o32a_1 A1 A2 A3 B1 B2 VGND VNB VPB VPWR X
.ends

* Black-box entry subcircuit for sky130_fd_sc_hd__decap_3 abstract view
.subckt sky130_fd_sc_hd__decap_3 VGND VNB VPB VPWR
.ends

* Black-box entry subcircuit for sky130_fd_sc_hd__o22ai_1 abstract view
.subckt sky130_fd_sc_hd__o22ai_1 A1 A2 B1 B2 VGND VNB VPB VPWR Y
.ends

* Black-box entry subcircuit for sky130_fd_sc_hd__a22o_1 abstract view
.subckt sky130_fd_sc_hd__a22o_1 A1 A2 B1 B2 VGND VNB VPB VPWR X
.ends

* Black-box entry subcircuit for sky130_fd_sc_hd__and3_1 abstract view
.subckt sky130_fd_sc_hd__and3_1 A B C VGND VNB VPB VPWR X
.ends

* Black-box entry subcircuit for sky130_fd_sc_hd__decap_8 abstract view
.subckt sky130_fd_sc_hd__decap_8 VGND VNB VPB VPWR
.ends

* Black-box entry subcircuit for sky130_fd_sc_hd__clkbuf_4 abstract view
.subckt sky130_fd_sc_hd__clkbuf_4 A VGND VNB VPB VPWR X
.ends

* Black-box entry subcircuit for sky130_fd_sc_hd__or3_1 abstract view
.subckt sky130_fd_sc_hd__or3_1 A B C VGND VNB VPB VPWR X
.ends

* Black-box entry subcircuit for sky130_fd_sc_hd__clkbuf_1 abstract view
.subckt sky130_fd_sc_hd__clkbuf_1 A VGND VNB VPB VPWR X
.ends

* Black-box entry subcircuit for sky130_fd_sc_hd__mux2_1 abstract view
.subckt sky130_fd_sc_hd__mux2_1 A0 A1 S VGND VNB VPB VPWR X
.ends

* Black-box entry subcircuit for sky130_fd_sc_hd__nand2_4 abstract view
.subckt sky130_fd_sc_hd__nand2_4 A B VGND VNB VPB VPWR Y
.ends

* Black-box entry subcircuit for sky130_fd_sc_hd__and4_1 abstract view
.subckt sky130_fd_sc_hd__and4_1 A B C D VGND VNB VPB VPWR X
.ends

* Black-box entry subcircuit for sky130_fd_sc_hd__a221oi_2 abstract view
.subckt sky130_fd_sc_hd__a221oi_2 A1 A2 B1 B2 C1 VGND VNB VPB VPWR Y
.ends

* Black-box entry subcircuit for sky130_fd_sc_hd__diode_2 abstract view
.subckt sky130_fd_sc_hd__diode_2 DIODE VGND VNB VPB VPWR
.ends

* Black-box entry subcircuit for sky130_fd_sc_hd__clkbuf_16 abstract view
.subckt sky130_fd_sc_hd__clkbuf_16 A VGND VNB VPB VPWR X
.ends

* Black-box entry subcircuit for sky130_fd_sc_hd__buf_12 abstract view
.subckt sky130_fd_sc_hd__buf_12 A VGND VNB VPB VPWR X
.ends

* Black-box entry subcircuit for sky130_fd_sc_hd__or2_1 abstract view
.subckt sky130_fd_sc_hd__or2_1 A B VGND VNB VPB VPWR X
.ends

* Black-box entry subcircuit for sky130_fd_sc_hd__nand2_2 abstract view
.subckt sky130_fd_sc_hd__nand2_2 A B VGND VNB VPB VPWR Y
.ends

* Black-box entry subcircuit for sky130_fd_sc_hd__and4b_1 abstract view
.subckt sky130_fd_sc_hd__and4b_1 A_N B C D VGND VNB VPB VPWR X
.ends

* Black-box entry subcircuit for sky130_fd_sc_hd__o221a_1 abstract view
.subckt sky130_fd_sc_hd__o221a_1 A1 A2 B1 B2 C1 VGND VNB VPB VPWR X
.ends

* Black-box entry subcircuit for sky130_fd_sc_hd__buf_1 abstract view
.subckt sky130_fd_sc_hd__buf_1 A VGND VNB VPB VPWR X
.ends

* Black-box entry subcircuit for sky130_fd_sc_hd__nand3_1 abstract view
.subckt sky130_fd_sc_hd__nand3_1 A B C VGND VNB VPB VPWR Y
.ends

* Black-box entry subcircuit for sky130_fd_sc_hd__a211oi_1 abstract view
.subckt sky130_fd_sc_hd__a211oi_1 A1 A2 B1 C1 VGND VNB VPB VPWR Y
.ends

* Black-box entry subcircuit for sky130_fd_sc_hd__or4b_1 abstract view
.subckt sky130_fd_sc_hd__or4b_1 A B C D_N VGND VNB VPB VPWR X
.ends

* Black-box entry subcircuit for sky130_fd_sc_hd__and2_2 abstract view
.subckt sky130_fd_sc_hd__and2_2 A B VGND VNB VPB VPWR X
.ends

* Black-box entry subcircuit for sky130_fd_sc_hd__nand3_4 abstract view
.subckt sky130_fd_sc_hd__nand3_4 A B C VGND VNB VPB VPWR Y
.ends

* Black-box entry subcircuit for sky130_fd_sc_hd__nor2_4 abstract view
.subckt sky130_fd_sc_hd__nor2_4 A B VGND VNB VPB VPWR Y
.ends

* Black-box entry subcircuit for sky130_fd_sc_hd__and3b_1 abstract view
.subckt sky130_fd_sc_hd__and3b_1 A_N B C VGND VNB VPB VPWR X
.ends

* Black-box entry subcircuit for sky130_fd_sc_hd__a21oi_1 abstract view
.subckt sky130_fd_sc_hd__a21oi_1 A1 A2 B1 VGND VNB VPB VPWR Y
.ends

* Black-box entry subcircuit for sky130_fd_sc_hd__dlygate4sd3_1 abstract view
.subckt sky130_fd_sc_hd__dlygate4sd3_1 A VGND VNB VPB VPWR X
.ends

* Black-box entry subcircuit for sky130_fd_sc_hd__a21o_1 abstract view
.subckt sky130_fd_sc_hd__a21o_1 A1 A2 B1 VGND VNB VPB VPWR X
.ends

* Black-box entry subcircuit for sky130_fd_sc_hd__buf_4 abstract view
.subckt sky130_fd_sc_hd__buf_4 A VGND VNB VPB VPWR X
.ends

* Black-box entry subcircuit for sky130_fd_sc_hd__buf_8 abstract view
.subckt sky130_fd_sc_hd__buf_8 A VGND VNB VPB VPWR X
.ends

* Black-box entry subcircuit for sky130_fd_sc_hd__xor2_4 abstract view
.subckt sky130_fd_sc_hd__xor2_4 A B VGND VNB VPB VPWR X
.ends

* Black-box entry subcircuit for sky130_fd_sc_hd__or2b_2 abstract view
.subckt sky130_fd_sc_hd__or2b_2 A B_N VGND VNB VPB VPWR X
.ends

* Black-box entry subcircuit for sky130_fd_sc_hd__nand3_2 abstract view
.subckt sky130_fd_sc_hd__nand3_2 A B C VGND VNB VPB VPWR Y
.ends

* Black-box entry subcircuit for sky130_fd_sc_hd__and3_2 abstract view
.subckt sky130_fd_sc_hd__and3_2 A B C VGND VNB VPB VPWR X
.ends

* Black-box entry subcircuit for sky130_fd_sc_hd__o211ai_4 abstract view
.subckt sky130_fd_sc_hd__o211ai_4 A1 A2 B1 C1 VGND VNB VPB VPWR Y
.ends

* Black-box entry subcircuit for sky130_fd_sc_hd__dfxtp_2 abstract view
.subckt sky130_fd_sc_hd__dfxtp_2 CLK D VGND VNB VPB VPWR Q
.ends

* Black-box entry subcircuit for sky130_fd_sc_hd__inv_4 abstract view
.subckt sky130_fd_sc_hd__inv_4 A VGND VNB VPB VPWR Y
.ends

* Black-box entry subcircuit for sky130_fd_sc_hd__or3b_1 abstract view
.subckt sky130_fd_sc_hd__or3b_1 A B C_N VGND VNB VPB VPWR X
.ends

* Black-box entry subcircuit for sky130_fd_sc_hd__buf_6 abstract view
.subckt sky130_fd_sc_hd__buf_6 A VGND VNB VPB VPWR X
.ends

* Black-box entry subcircuit for sky130_fd_sc_hd__a31o_1 abstract view
.subckt sky130_fd_sc_hd__a31o_1 A1 A2 A3 B1 VGND VNB VPB VPWR X
.ends

* Black-box entry subcircuit for sky130_fd_sc_hd__a211o_1 abstract view
.subckt sky130_fd_sc_hd__a211o_1 A1 A2 B1 C1 VGND VNB VPB VPWR X
.ends

* Black-box entry subcircuit for sky130_fd_sc_hd__and3_4 abstract view
.subckt sky130_fd_sc_hd__and3_4 A B C VGND VNB VPB VPWR X
.ends

* Black-box entry subcircuit for sky130_fd_sc_hd__o21bai_1 abstract view
.subckt sky130_fd_sc_hd__o21bai_1 A1 A2 B1_N VGND VNB VPB VPWR Y
.ends

* Black-box entry subcircuit for sky130_fd_sc_hd__o21a_1 abstract view
.subckt sky130_fd_sc_hd__o21a_1 A1 A2 B1 VGND VNB VPB VPWR X
.ends

* Black-box entry subcircuit for sky130_fd_sc_hd__o211a_1 abstract view
.subckt sky130_fd_sc_hd__o211a_1 A1 A2 B1 C1 VGND VNB VPB VPWR X
.ends

* Black-box entry subcircuit for sky130_fd_sc_hd__o41a_2 abstract view
.subckt sky130_fd_sc_hd__o41a_2 A1 A2 A3 A4 B1 VGND VNB VPB VPWR X
.ends

* Black-box entry subcircuit for sky130_fd_sc_hd__xnor2_1 abstract view
.subckt sky130_fd_sc_hd__xnor2_1 A B VGND VNB VPB VPWR Y
.ends

* Black-box entry subcircuit for sky130_fd_sc_hd__xnor2_4 abstract view
.subckt sky130_fd_sc_hd__xnor2_4 A B VGND VNB VPB VPWR Y
.ends

* Black-box entry subcircuit for sky130_fd_sc_hd__a21bo_2 abstract view
.subckt sky130_fd_sc_hd__a21bo_2 A1 A2 B1_N VGND VNB VPB VPWR X
.ends

* Black-box entry subcircuit for sky130_fd_sc_hd__or4b_2 abstract view
.subckt sky130_fd_sc_hd__or4b_2 A B C D_N VGND VNB VPB VPWR X
.ends

* Black-box entry subcircuit for sky130_fd_sc_hd__o21a_4 abstract view
.subckt sky130_fd_sc_hd__o21a_4 A1 A2 B1 VGND VNB VPB VPWR X
.ends

* Black-box entry subcircuit for sky130_fd_sc_hd__clkbuf_8 abstract view
.subckt sky130_fd_sc_hd__clkbuf_8 A VGND VNB VPB VPWR X
.ends

* Black-box entry subcircuit for sky130_fd_sc_hd__nor2_2 abstract view
.subckt sky130_fd_sc_hd__nor2_2 A B VGND VNB VPB VPWR Y
.ends

* Black-box entry subcircuit for sky130_fd_sc_hd__a22o_2 abstract view
.subckt sky130_fd_sc_hd__a22o_2 A1 A2 B1 B2 VGND VNB VPB VPWR X
.ends

* Black-box entry subcircuit for sky130_fd_sc_hd__or2b_4 abstract view
.subckt sky130_fd_sc_hd__or2b_4 A B_N VGND VNB VPB VPWR X
.ends

* Black-box entry subcircuit for sky130_fd_sc_hd__nand2_8 abstract view
.subckt sky130_fd_sc_hd__nand2_8 A B VGND VNB VPB VPWR Y
.ends

* Black-box entry subcircuit for sky130_fd_sc_hd__and2_4 abstract view
.subckt sky130_fd_sc_hd__and2_4 A B VGND VNB VPB VPWR X
.ends

* Black-box entry subcircuit for sky130_fd_sc_hd__or2_2 abstract view
.subckt sky130_fd_sc_hd__or2_2 A B VGND VNB VPB VPWR X
.ends

* Black-box entry subcircuit for sky130_fd_sc_hd__o21ai_4 abstract view
.subckt sky130_fd_sc_hd__o21ai_4 A1 A2 B1 VGND VNB VPB VPWR Y
.ends

* Black-box entry subcircuit for sky130_fd_sc_hd__or3_2 abstract view
.subckt sky130_fd_sc_hd__or3_2 A B C VGND VNB VPB VPWR X
.ends

* Black-box entry subcircuit for sky130_fd_sc_hd__a21oi_2 abstract view
.subckt sky130_fd_sc_hd__a21oi_2 A1 A2 B1 VGND VNB VPB VPWR Y
.ends

* Black-box entry subcircuit for sky130_fd_sc_hd__nand3b_2 abstract view
.subckt sky130_fd_sc_hd__nand3b_2 A_N B C VGND VNB VPB VPWR Y
.ends

* Black-box entry subcircuit for sky130_fd_sc_hd__nor2_8 abstract view
.subckt sky130_fd_sc_hd__nor2_8 A B VGND VNB VPB VPWR Y
.ends

* Black-box entry subcircuit for sky130_fd_sc_hd__clkinvlp_2 abstract view
.subckt sky130_fd_sc_hd__clkinvlp_2 A VGND VNB VPB VPWR Y
.ends

* Black-box entry subcircuit for sky130_fd_sc_hd__and2b_1 abstract view
.subckt sky130_fd_sc_hd__and2b_1 A_N B VGND VNB VPB VPWR X
.ends

* Black-box entry subcircuit for sky130_fd_sc_hd__a21oi_4 abstract view
.subckt sky130_fd_sc_hd__a21oi_4 A1 A2 B1 VGND VNB VPB VPWR Y
.ends

* Black-box entry subcircuit for sky130_fd_sc_hd__a32o_2 abstract view
.subckt sky130_fd_sc_hd__a32o_2 A1 A2 A3 B1 B2 VGND VNB VPB VPWR X
.ends

* Black-box entry subcircuit for sky130_fd_sc_hd__xor2_2 abstract view
.subckt sky130_fd_sc_hd__xor2_2 A B VGND VNB VPB VPWR X
.ends

.subckt egd_top_wrapper la_data_in_47_32[0] la_data_in_47_32[10] la_data_in_47_32[11]
+ la_data_in_47_32[12] la_data_in_47_32[13] la_data_in_47_32[14] la_data_in_47_32[15]
+ la_data_in_47_32[1] la_data_in_47_32[2] la_data_in_47_32[3] la_data_in_47_32[4]
+ la_data_in_47_32[5] la_data_in_47_32[6] la_data_in_47_32[7] la_data_in_47_32[8]
+ la_data_in_47_32[9] la_data_in_49_48[0] la_data_in_49_48[1] la_data_in_64 la_data_in_65
+ la_data_out_15_8[0] la_data_out_15_8[1] la_data_out_15_8[2] la_data_out_15_8[3]
+ la_data_out_15_8[4] la_data_out_15_8[5] la_data_out_15_8[6] la_data_out_15_8[7]
+ la_data_out_18_16[0] la_data_out_18_16[1] la_data_out_18_16[2] la_data_out_22_19[0]
+ la_data_out_22_19[1] la_data_out_22_19[2] la_data_out_22_19[3] la_oenb_64 la_oenb_65
+ vccd1 vssd1 wb_clk_i wb_rst_i
XTAP_188 vssd1 vccd1 sky130_fd_sc_hd__tapvpwrvgnd_1
XTAP_199 vssd1 vccd1 sky130_fd_sc_hd__tapvpwrvgnd_1
XFILLER_0_27_93 vssd1 vssd1 vccd1 vccd1 sky130_ef_sc_hd__decap_12
XFILLER_0_89_461 vssd1 vssd1 vccd1 vccd1 sky130_ef_sc_hd__decap_12
X_6914_ _3045_ _3046_ clknet_1_1__leaf__3047_ vssd1 vssd1 vccd1 vccd1 _0055_ sky130_fd_sc_hd__o21ai_2
XFILLER_0_76_133 vssd1 vssd1 vccd1 vccd1 sky130_fd_sc_hd__decap_6
XFILLER_0_76_177 vssd1 vssd1 vccd1 vccd1 sky130_ef_sc_hd__decap_12
XFILLER_0_64_306 vssd1 vssd1 vccd1 vccd1 sky130_fd_sc_hd__fill_2
XFILLER_0_9_433 vssd1 vssd1 vccd1 vccd1 sky130_ef_sc_hd__decap_12
X_6845_ _3025_ _3028_ clknet_1_1__leaf__3032_ vssd1 vssd1 vccd1 vccd1 _0001_ sky130_fd_sc_hd__o21ai_2
XFILLER_0_43_81 vssd1 vssd1 vccd1 vccd1 sky130_ef_sc_hd__decap_12
X_3988_ _0331_ vssd1 vssd1 vccd1 vccd1 _0332_ sky130_fd_sc_hd__clkbuf_2
X_6776_ _2879_ _2906_ vssd1 vssd1 vccd1 vccd1 _2969_ sky130_fd_sc_hd__nor2_1
X_5727_ _0877_ _0426_ _2057_ _2058_ _2059_ vssd1 vssd1 vccd1 vccd1 _2060_ sky130_fd_sc_hd__o2111a_1
XFILLER_0_60_501 vssd1 vssd1 vccd1 vccd1 sky130_ef_sc_hd__decap_12
X_5658_ _0836_ _3253_ _3449_ _3257_ _1990_ vssd1 vssd1 vccd1 vccd1 _1991_ sky130_fd_sc_hd__a221oi_1
X_4609_ _0800_ _0950_ vssd1 vssd1 vccd1 vccd1 _0295_ sky130_fd_sc_hd__nor2_1
X_5589_ _1291_ _0366_ _1922_ vssd1 vssd1 vccd1 vccd1 _1923_ sky130_fd_sc_hd__o21ai_1
XFILLER_0_7_81 vssd1 vssd1 vccd1 vccd1 sky130_ef_sc_hd__decap_12
XFILLER_0_67_111 vssd1 vssd1 vccd1 vccd1 sky130_fd_sc_hd__fill_1
XFILLER_0_28_509 vssd1 vssd1 vccd1 vccd1 sky130_fd_sc_hd__decap_4
XFILLER_0_36_520 vssd1 vssd1 vccd1 vccd1 sky130_fd_sc_hd__fill_2
XFILLER_0_36_531 vssd1 vssd1 vccd1 vccd1 sky130_fd_sc_hd__fill_1
XFILLER_0_51_512 vssd1 vssd1 vccd1 vccd1 sky130_ef_sc_hd__decap_12
XFILLER_0_11_409 vssd1 vssd1 vccd1 vccd1 sky130_fd_sc_hd__decap_6
XFILLER_0_48_15 vssd1 vssd1 vccd1 vccd1 sky130_ef_sc_hd__decap_12
XFILLER_0_3_39 vssd1 vssd1 vccd1 vccd1 sky130_ef_sc_hd__decap_12
X_4960_ _3497_ _0376_ _0701_ _0379_ _1298_ vssd1 vssd1 vccd1 vccd1 _1299_ sky130_fd_sc_hd__a221oi_1
XFILLER_0_86_475 vssd1 vssd1 vccd1 vccd1 sky130_fd_sc_hd__fill_1
X_4891_ _3245_ _0801_ vssd1 vssd1 vccd1 vccd1 _1230_ sky130_fd_sc_hd__nand2_1
X_3911_ egd_top.BitStream_buffer.BS_buffer\[42\] vssd1 vssd1 vccd1 vccd1 _3449_ sky130_fd_sc_hd__buf_2
XFILLER_0_73_125 vssd1 vssd1 vccd1 vccd1 sky130_ef_sc_hd__decap_12
XFILLER_0_13_51 vssd1 vssd1 vccd1 vccd1 sky130_fd_sc_hd__decap_4
X_6630_ _2809_ vssd1 vssd1 vccd1 vccd1 _2828_ sky130_fd_sc_hd__inv_2
X_3842_ egd_top.BitStream_buffer.BS_buffer\[59\] vssd1 vssd1 vccd1 vccd1 _3380_ sky130_fd_sc_hd__buf_2
X_6561_ egd_top.BitStream_buffer.BitStream_buffer_output\[12\] vssd1 vssd1 vccd1 vccd1
+ _2762_ sky130_fd_sc_hd__inv_2
X_3773_ egd_top.BitStream_buffer.BS_buffer\[24\] vssd1 vssd1 vccd1 vccd1 _3311_ sky130_fd_sc_hd__inv_2
X_5512_ _1845_ _1846_ vssd1 vssd1 vccd1 vccd1 _1847_ sky130_fd_sc_hd__nand2_1
XFILLER_0_89_55 vssd1 vssd1 vccd1 vccd1 sky130_fd_sc_hd__fill_1
X_6492_ _2708_ _2689_ vssd1 vssd1 vccd1 vccd1 _2709_ sky130_fd_sc_hd__and2_1
XFILLER_0_54_383 vssd1 vssd1 vccd1 vccd1 sky130_fd_sc_hd__decap_4
X_5443_ _1776_ _1777_ vssd1 vssd1 vccd1 vccd1 _1778_ sky130_fd_sc_hd__nand2_1
X_5374_ _0509_ _0534_ vssd1 vssd1 vccd1 vccd1 _1710_ sky130_fd_sc_hd__nand2_1
X_7113_ _0063_ _0224_ vssd1 vssd1 vccd1 vccd1 egd_top.BitStream_buffer.BS_buffer\[55\]
+ sky130_fd_sc_hd__dfxtp_1
X_4325_ _0666_ _3368_ _0667_ vssd1 vssd1 vccd1 vccd1 _0668_ sky130_fd_sc_hd__o21ai_1
XFILLER_0_10_486 vssd1 vssd1 vccd1 vccd1 sky130_fd_sc_hd__fill_1
X_7044_ _3075_ _3076_ clknet_1_0__leaf__3077_ vssd1 vssd1 vccd1 vccd1 _0155_ sky130_fd_sc_hd__o21ai_2
X_4256_ _0599_ vssd1 vssd1 vccd1 vccd1 _0600_ sky130_fd_sc_hd__buf_2
X_4187_ _0530_ vssd1 vssd1 vccd1 vccd1 _0531_ sky130_fd_sc_hd__buf_2
XFILLER_0_49_111 vssd1 vssd1 vccd1 vccd1 sky130_fd_sc_hd__fill_1
XFILLER_0_77_497 vssd1 vssd1 vccd1 vccd1 sky130_fd_sc_hd__decap_6
X_6828_ _3017_ _3018_ vssd1 vssd1 vccd1 vccd1 _3019_ sky130_fd_sc_hd__nand2_1
XFILLER_0_18_531 vssd1 vssd1 vccd1 vccd1 sky130_fd_sc_hd__fill_1
X_6759_ _2946_ _2801_ _2947_ _2951_ _2952_ vssd1 vssd1 vccd1 vccd1 _2953_ sky130_fd_sc_hd__o32a_1
XFILLER_0_33_501 vssd1 vssd1 vccd1 vccd1 sky130_fd_sc_hd__decap_3
XFILLER_0_72_191 vssd1 vssd1 vccd1 vccd1 sky130_fd_sc_hd__decap_4
XFILLER_0_33_523 vssd1 vssd1 vccd1 vccd1 sky130_fd_sc_hd__fill_1
XFILLER_0_18_29 vssd1 vssd1 vccd1 vccd1 sky130_ef_sc_hd__decap_12
XFILLER_0_87_217 vssd1 vssd1 vccd1 vccd1 sky130_fd_sc_hd__decap_6
XFILLER_0_68_475 vssd1 vssd1 vccd1 vccd1 sky130_fd_sc_hd__fill_1
XFILLER_0_50_27 vssd1 vssd1 vccd1 vccd1 sky130_fd_sc_hd__fill_1
XFILLER_0_70_139 vssd1 vssd1 vccd1 vccd1 sky130_fd_sc_hd__fill_1
XFILLER_0_59_69 vssd1 vssd1 vccd1 vccd1 sky130_ef_sc_hd__decap_12
X_4110_ _3289_ _0406_ vssd1 vssd1 vccd1 vccd1 _0454_ sky130_fd_sc_hd__and2_1
X_5090_ _0701_ _0376_ _0695_ _0379_ _1427_ vssd1 vssd1 vccd1 vccd1 _1428_ sky130_fd_sc_hd__a221oi_1
XFILLER_0_75_57 vssd1 vssd1 vccd1 vccd1 sky130_ef_sc_hd__decap_12
X_4041_ _0384_ vssd1 vssd1 vccd1 vccd1 _0385_ sky130_fd_sc_hd__buf_2
X_5992_ _0437_ _0527_ _0743_ _0530_ vssd1 vssd1 vccd1 vccd1 _2323_ sky130_fd_sc_hd__o22ai_1
X_4943_ _3508_ _3296_ _3511_ _3246_ vssd1 vssd1 vccd1 vccd1 _1282_ sky130_fd_sc_hd__a22o_1
XFILLER_0_59_453 vssd1 vssd1 vccd1 vccd1 sky130_ef_sc_hd__decap_12
XFILLER_0_74_401 vssd1 vssd1 vccd1 vccd1 sky130_ef_sc_hd__decap_12
XFILLER_0_24_83 vssd1 vssd1 vccd1 vccd1 sky130_fd_sc_hd__fill_1
XFILLER_0_74_445 vssd1 vssd1 vccd1 vccd1 sky130_ef_sc_hd__decap_12
X_4874_ _1073_ _0576_ _1210_ _0580_ _1213_ vssd1 vssd1 vccd1 vccd1 _1214_ sky130_fd_sc_hd__a221oi_1
X_6613_ _2810_ _2760_ vssd1 vssd1 vccd1 vccd1 _2811_ sky130_fd_sc_hd__and2_1
XFILLER_0_74_489 vssd1 vssd1 vccd1 vccd1 sky130_ef_sc_hd__decap_12
XFILLER_0_6_211 vssd1 vssd1 vccd1 vccd1 sky130_fd_sc_hd__fill_2
X_3825_ _3292_ _3323_ vssd1 vssd1 vccd1 vccd1 _3363_ sky130_fd_sc_hd__and2_1
X_3756_ _3293_ vssd1 vssd1 vccd1 vccd1 _3294_ sky130_fd_sc_hd__clkbuf_2
X_6544_ _2743_ _2744_ vssd1 vssd1 vccd1 vccd1 _2745_ sky130_fd_sc_hd__and2_1
XFILLER_0_15_534 vssd1 vssd1 vccd1 vccd1 sky130_fd_sc_hd__decap_6
X_6475_ _3218_ _3090_ vssd1 vssd1 vccd1 vccd1 _0182_ sky130_fd_sc_hd__nor2_1
XFILLER_0_42_353 vssd1 vssd1 vccd1 vccd1 sky130_fd_sc_hd__fill_1
XFILLER_0_71_3 vssd1 vssd1 vccd1 vccd1 sky130_ef_sc_hd__decap_12
X_3687_ _3117_ egd_top.BitStream_buffer.pc\[2\] _3216_ vssd1 vssd1 vccd1 vccd1 _3225_
+ sky130_fd_sc_hd__and3_1
X_5426_ _3380_ _3361_ _3322_ _3365_ _1760_ vssd1 vssd1 vccd1 vccd1 _1761_ sky130_fd_sc_hd__a221oi_1
X_5357_ _0404_ _0427_ _1690_ _1691_ _1692_ vssd1 vssd1 vccd1 vccd1 _1693_ sky130_fd_sc_hd__o2111a_1
X_4308_ _0649_ _3291_ _0650_ vssd1 vssd1 vccd1 vccd1 _0651_ sky130_fd_sc_hd__o21ai_1
X_5288_ _0653_ _3291_ _1623_ vssd1 vssd1 vccd1 vccd1 _1624_ sky130_fd_sc_hd__o21ai_1
X_4239_ _0582_ vssd1 vssd1 vccd1 vccd1 _0583_ sky130_fd_sc_hd__buf_2
X_7027_ _3072_ _3073_ clknet_1_1__leaf__3074_ vssd1 vssd1 vccd1 vccd1 _0141_ sky130_fd_sc_hd__o21ai_2
XFILLER_0_84_209 vssd1 vssd1 vccd1 vccd1 sky130_ef_sc_hd__decap_12
XFILLER_0_65_412 vssd1 vssd1 vccd1 vccd1 sky130_ef_sc_hd__decap_12
XFILLER_0_37_125 vssd1 vssd1 vccd1 vccd1 sky130_ef_sc_hd__decap_12
XFILLER_0_18_372 vssd1 vssd1 vccd1 vccd1 sky130_fd_sc_hd__decap_8
XFILLER_0_33_375 vssd1 vssd1 vccd1 vccd1 sky130_fd_sc_hd__fill_1
XFILLER_0_29_39 vssd1 vssd1 vccd1 vccd1 sky130_ef_sc_hd__decap_12
XFILLER_0_45_27 vssd1 vssd1 vccd1 vccd1 sky130_ef_sc_hd__decap_12
XFILLER_0_68_250 vssd1 vssd1 vccd1 vccd1 sky130_fd_sc_hd__fill_2
XFILLER_0_61_15 vssd1 vssd1 vccd1 vccd1 sky130_ef_sc_hd__decap_12
XFILLER_0_0_29 vssd1 vssd1 vccd1 vccd1 sky130_fd_sc_hd__decap_8
XFILLER_0_56_401 vssd1 vssd1 vccd1 vccd1 sky130_fd_sc_hd__decap_8
XFILLER_0_28_147 vssd1 vssd1 vccd1 vccd1 sky130_fd_sc_hd__fill_1
XFILLER_0_56_489 vssd1 vssd1 vccd1 vccd1 sky130_ef_sc_hd__decap_12
XFILLER_0_9_27 vssd1 vssd1 vccd1 vccd1 sky130_ef_sc_hd__decap_12
X_4590_ egd_top.BitStream_buffer.BS_buffer\[81\] vssd1 vssd1 vccd1 vccd1 _0932_ sky130_fd_sc_hd__clkbuf_4
X_3610_ egd_top.BitStream_buffer.BS_buffer\[113\] vssd1 vssd1 vccd1 vccd1 _3163_ sky130_fd_sc_hd__clkbuf_4
X_3541_ _3094_ _3099_ _3089_ vssd1 vssd1 vccd1 vccd1 _3100_ sky130_fd_sc_hd__or3_1
XFILLER_0_10_41 vssd1 vssd1 vccd1 vccd1 sky130_ef_sc_hd__decap_12
X_6260_ _2553_ vssd1 vssd1 vccd1 vccd1 _0247_ sky130_fd_sc_hd__clkbuf_1
XFILLER_0_10_85 vssd1 vssd1 vccd1 vccd1 sky130_ef_sc_hd__decap_12
X_6191_ _2505_ vssd1 vssd1 vccd1 vccd1 _0268_ sky130_fd_sc_hd__clkbuf_1
X_5211_ _0380_ _0351_ vssd1 vssd1 vccd1 vccd1 _1548_ sky130_fd_sc_hd__nor2_1
X_5142_ _0781_ _0614_ _0932_ _0618_ _1479_ vssd1 vssd1 vccd1 vccd1 _1480_ sky130_fd_sc_hd__a221oi_1
X_5073_ _3288_ _3502_ _0649_ _3505_ vssd1 vssd1 vccd1 vccd1 _1411_ sky130_fd_sc_hd__o22ai_1
X_4024_ _3283_ _0344_ vssd1 vssd1 vccd1 vccd1 _0368_ sky130_fd_sc_hd__and2_1
XFILLER_0_79_537 vssd1 vssd1 vccd1 vccd1 sky130_fd_sc_hd__decap_3
XFILLER_0_35_93 vssd1 vssd1 vccd1 vccd1 sky130_ef_sc_hd__decap_12
X_5975_ _2304_ _2305_ vssd1 vssd1 vccd1 vccd1 _2306_ sky130_fd_sc_hd__nand2_1
XFILLER_0_47_423 vssd1 vssd1 vccd1 vccd1 sky130_fd_sc_hd__fill_1
XFILLER_0_74_231 vssd1 vssd1 vccd1 vccd1 sky130_fd_sc_hd__decap_3
XFILLER_0_19_125 vssd1 vssd1 vccd1 vccd1 sky130_ef_sc_hd__decap_12
X_4926_ _1115_ _3424_ _1264_ vssd1 vssd1 vccd1 vccd1 _1265_ sky130_fd_sc_hd__o21ai_1
XFILLER_0_74_253 vssd1 vssd1 vccd1 vccd1 sky130_fd_sc_hd__fill_2
X_4857_ _0509_ _0518_ vssd1 vssd1 vccd1 vccd1 _1197_ sky130_fd_sc_hd__nand2_1
XFILLER_0_51_81 vssd1 vssd1 vccd1 vccd1 sky130_ef_sc_hd__decap_12
X_3808_ _3345_ vssd1 vssd1 vccd1 vccd1 _3346_ sky130_fd_sc_hd__clkbuf_2
X_6527_ net10 _0768_ _2706_ vssd1 vssd1 vccd1 vccd1 _2732_ sky130_fd_sc_hd__mux2_1
X_4788_ _0976_ _3424_ _1127_ vssd1 vssd1 vccd1 vccd1 _1128_ sky130_fd_sc_hd__o21ai_1
X_3739_ _3276_ _3216_ vssd1 vssd1 vccd1 vccd1 _3277_ sky130_fd_sc_hd__nand2_4
X_6458_ _3079_ vssd1 vssd1 vccd1 vccd1 _2689_ sky130_fd_sc_hd__buf_2
X_5409_ _3270_ _1130_ vssd1 vssd1 vccd1 vccd1 _1744_ sky130_fd_sc_hd__nand2_1
X_6389_ _2641_ vssd1 vssd1 vccd1 vccd1 _0206_ sky130_fd_sc_hd__clkbuf_1
XFILLER_0_85_529 vssd1 vssd1 vccd1 vccd1 sky130_fd_sc_hd__decap_8
XFILLER_0_40_109 vssd1 vssd1 vccd1 vccd1 sky130_fd_sc_hd__decap_8
XTAP_507 vssd1 vccd1 sky130_fd_sc_hd__tapvpwrvgnd_1
XTAP_518 vssd1 vccd1 sky130_fd_sc_hd__tapvpwrvgnd_1
XTAP_529 vssd1 vccd1 sky130_fd_sc_hd__tapvpwrvgnd_1
XFILLER_0_56_15 vssd1 vssd1 vccd1 vccd1 sky130_ef_sc_hd__decap_12
XFILLER_0_88_301 vssd1 vssd1 vccd1 vccd1 sky130_fd_sc_hd__decap_6
XFILLER_0_88_345 vssd1 vssd1 vccd1 vccd1 sky130_ef_sc_hd__decap_12
XFILLER_0_88_389 vssd1 vssd1 vccd1 vccd1 sky130_ef_sc_hd__decap_12
XFILLER_0_8_306 vssd1 vssd1 vccd1 vccd1 sky130_fd_sc_hd__fill_2
X_5760_ _0605_ egd_top.BitStream_buffer.BS_buffer\[76\] vssd1 vssd1 vccd1 vccd1 _2093_
+ sky130_fd_sc_hd__nand2_1
X_4711_ _1032_ _1051_ vssd1 vssd1 vccd1 vccd1 _1052_ sky130_fd_sc_hd__nand2_1
X_5691_ _2013_ _2016_ _2019_ _2023_ vssd1 vssd1 vccd1 vccd1 _2024_ sky130_fd_sc_hd__and4_1
XFILLER_0_56_253 vssd1 vssd1 vccd1 vccd1 sky130_fd_sc_hd__fill_2
XFILLER_0_71_201 vssd1 vssd1 vccd1 vccd1 sky130_fd_sc_hd__decap_6
XFILLER_0_4_501 vssd1 vssd1 vccd1 vccd1 sky130_ef_sc_hd__decap_12
X_4642_ _3327_ _3379_ _3336_ _3383_ _0982_ vssd1 vssd1 vccd1 vccd1 _0983_ sky130_fd_sc_hd__a221oi_2
XFILLER_0_21_51 vssd1 vssd1 vccd1 vccd1 sky130_fd_sc_hd__decap_4
X_4573_ _0509_ _0765_ vssd1 vssd1 vccd1 vccd1 _0915_ sky130_fd_sc_hd__nand2_1
XFILLER_0_24_161 vssd1 vssd1 vccd1 vccd1 sky130_fd_sc_hd__fill_2
X_3524_ _3081_ _3085_ vssd1 vssd1 vccd1 vccd1 _3086_ sky130_fd_sc_hd__nand2_1
XFILLER_0_24_194 vssd1 vssd1 vccd1 vccd1 sky130_fd_sc_hd__fill_2
X_6312_ _2588_ _2580_ vssd1 vssd1 vccd1 vccd1 _2589_ sky130_fd_sc_hd__and2_1
X_6243_ _2541_ vssd1 vssd1 vccd1 vccd1 _0252_ sky130_fd_sc_hd__clkbuf_1
X_6174_ net16 _3476_ _2480_ vssd1 vssd1 vccd1 vccd1 _2494_ sky130_fd_sc_hd__mux2_1
X_5125_ _1334_ _0544_ _1462_ _0547_ vssd1 vssd1 vccd1 vccd1 _1463_ sky130_fd_sc_hd__o22ai_1
XFILLER_0_34_3 vssd1 vssd1 vccd1 vccd1 sky130_ef_sc_hd__decap_12
X_5056_ _3427_ egd_top.BitStream_buffer.BS_buffer\[52\] vssd1 vssd1 vccd1 vccd1 _1394_
+ sky130_fd_sc_hd__nand2_1
X_4007_ _0350_ vssd1 vssd1 vccd1 vccd1 _0351_ sky130_fd_sc_hd__clkbuf_4
XFILLER_0_67_529 vssd1 vssd1 vccd1 vccd1 sky130_fd_sc_hd__decap_8
X_5958_ _3208_ _0360_ _0634_ _0363_ _2288_ vssd1 vssd1 vccd1 vccd1 _2289_ sky130_fd_sc_hd__a221oi_1
X_4909_ egd_top.BitStream_buffer.BS_buffer\[60\] vssd1 vssd1 vccd1 vccd1 _1248_ sky130_fd_sc_hd__inv_2
XFILLER_0_62_212 vssd1 vssd1 vccd1 vccd1 sky130_fd_sc_hd__decap_3
X_5889_ _2206_ _2220_ vssd1 vssd1 vccd1 vccd1 _2221_ sky130_fd_sc_hd__nand2_1
XFILLER_0_35_459 vssd1 vssd1 vccd1 vccd1 sky130_fd_sc_hd__fill_1
XFILLER_0_15_172 vssd1 vssd1 vccd1 vccd1 sky130_fd_sc_hd__fill_2
XFILLER_0_22_109 vssd1 vssd1 vccd1 vccd1 sky130_ef_sc_hd__decap_12
XFILLER_0_30_164 vssd1 vssd1 vccd1 vccd1 sky130_fd_sc_hd__fill_2
XFILLER_0_26_29 vssd1 vssd1 vccd1 vccd1 sky130_ef_sc_hd__decap_12
XFILLER_0_85_337 vssd1 vssd1 vccd1 vccd1 sky130_ef_sc_hd__decap_12
XFILLER_0_38_253 vssd1 vssd1 vccd1 vccd1 sky130_fd_sc_hd__decap_8
XANTENNA_5 _3467_ vssd1 vssd1 vccd1 vccd1 sky130_fd_sc_hd__diode_2
Xclkbuf_1_0__f__3032_ clknet_0__3032_ vssd1 vssd1 vccd1 vccd1 clknet_1_0__leaf__3032_
+ sky130_fd_sc_hd__clkbuf_16
XFILLER_0_1_537 vssd1 vssd1 vccd1 vccd1 sky130_fd_sc_hd__decap_3
XTAP_315 vssd1 vccd1 sky130_fd_sc_hd__tapvpwrvgnd_1
XTAP_304 vssd1 vccd1 sky130_fd_sc_hd__tapvpwrvgnd_1
XFILLER_0_67_69 vssd1 vssd1 vccd1 vccd1 sky130_ef_sc_hd__decap_12
XTAP_326 vssd1 vccd1 sky130_fd_sc_hd__tapvpwrvgnd_1
XTAP_337 vssd1 vccd1 sky130_fd_sc_hd__tapvpwrvgnd_1
XTAP_348 vssd1 vccd1 sky130_fd_sc_hd__tapvpwrvgnd_1
XTAP_359 vssd1 vccd1 sky130_fd_sc_hd__tapvpwrvgnd_1
XFILLER_0_83_57 vssd1 vssd1 vccd1 vccd1 sky130_ef_sc_hd__decap_12
X_6930_ _3048_ _3049_ clknet_1_1__leaf__3050_ vssd1 vssd1 vccd1 vccd1 _0068_ sky130_fd_sc_hd__o21ai_2
XFILLER_0_88_153 vssd1 vssd1 vccd1 vccd1 sky130_ef_sc_hd__decap_12
XFILLER_0_76_326 vssd1 vssd1 vccd1 vccd1 sky130_fd_sc_hd__decap_4
X_6861_ _3033_ _3034_ clknet_1_1__leaf__3035_ vssd1 vssd1 vccd1 vccd1 _0014_ sky130_fd_sc_hd__o21ai_2
XFILLER_0_88_197 vssd1 vssd1 vccd1 vccd1 sky130_ef_sc_hd__decap_12
XFILLER_0_76_337 vssd1 vssd1 vccd1 vccd1 sky130_fd_sc_hd__fill_2
X_6792_ _2983_ _2984_ vssd1 vssd1 vccd1 vccd1 net28 sky130_fd_sc_hd__nand2_1
X_5812_ _2142_ _2143_ vssd1 vssd1 vccd1 vccd1 _2144_ sky130_fd_sc_hd__nand2_1
X_5743_ _0522_ _0493_ _0495_ _0768_ _2075_ vssd1 vssd1 vccd1 vccd1 _2076_ sky130_fd_sc_hd__a221oi_1
XFILLER_0_8_169 vssd1 vssd1 vccd1 vccd1 sky130_fd_sc_hd__fill_2
XFILLER_0_32_83 vssd1 vssd1 vccd1 vccd1 sky130_fd_sc_hd__fill_1
X_5674_ _3385_ egd_top.BitStream_buffer.BS_buffer\[68\] vssd1 vssd1 vccd1 vccd1 _2007_
+ sky130_fd_sc_hd__nand2_1
X_4625_ _3264_ _3305_ _3250_ _3310_ _0965_ vssd1 vssd1 vccd1 vccd1 _0966_ sky130_fd_sc_hd__a221oi_1
XFILLER_0_4_353 vssd1 vssd1 vccd1 vccd1 sky130_fd_sc_hd__fill_2
X_4556_ _0451_ _0739_ vssd1 vssd1 vccd1 vccd1 _0898_ sky130_fd_sc_hd__nand2_1
XFILLER_0_12_197 vssd1 vssd1 vccd1 vccd1 sky130_fd_sc_hd__fill_2
X_4487_ _0827_ _3368_ _0828_ vssd1 vssd1 vccd1 vccd1 _0829_ sky130_fd_sc_hd__o21ai_1
X_6226_ _2513_ _2529_ vssd1 vssd1 vccd1 vccd1 _2530_ sky130_fd_sc_hd__and2_1
XTAP_871 vssd1 vccd1 sky130_fd_sc_hd__tapvpwrvgnd_1
XTAP_860 vssd1 vccd1 sky130_fd_sc_hd__tapvpwrvgnd_1
X_6157_ _2482_ vssd1 vssd1 vccd1 vccd1 _0279_ sky130_fd_sc_hd__clkbuf_1
XTAP_893 vssd1 vccd1 sky130_fd_sc_hd__tapvpwrvgnd_1
XTAP_882 vssd1 vccd1 sky130_fd_sc_hd__tapvpwrvgnd_1
X_5108_ _0475_ egd_top.BitStream_buffer.BS_buffer\[110\] vssd1 vssd1 vccd1 vccd1 _1446_
+ sky130_fd_sc_hd__nand2_1
X_6088_ _0416_ _3199_ vssd1 vssd1 vccd1 vccd1 _2418_ sky130_fd_sc_hd__nand2_1
X_5039_ _0593_ _3326_ _0597_ _3330_ _1376_ vssd1 vssd1 vccd1 vccd1 _1377_ sky130_fd_sc_hd__a221oi_1
XFILLER_0_67_326 vssd1 vssd1 vccd1 vccd1 sky130_fd_sc_hd__decap_8
XFILLER_0_82_307 vssd1 vssd1 vccd1 vccd1 sky130_fd_sc_hd__fill_1
XFILLER_0_35_245 vssd1 vssd1 vccd1 vccd1 sky130_fd_sc_hd__decap_4
XFILLER_0_35_278 vssd1 vssd1 vccd1 vccd1 sky130_fd_sc_hd__fill_2
XFILLER_0_50_226 vssd1 vssd1 vccd1 vccd1 sky130_fd_sc_hd__fill_1
Xoutput31 net31 vssd1 vssd1 vccd1 vccd1 la_data_out_15_8[7] sky130_fd_sc_hd__buf_12
XFILLER_0_37_39 vssd1 vssd1 vccd1 vccd1 sky130_ef_sc_hd__decap_12
XFILLER_0_53_27 vssd1 vssd1 vccd1 vccd1 sky130_ef_sc_hd__decap_12
XFILLER_0_85_167 vssd1 vssd1 vccd1 vccd1 sky130_fd_sc_hd__fill_1
XPHY_170 vssd1 vssd1 vccd1 vccd1 sky130_fd_sc_hd__decap_3
XPHY_181 vssd1 vssd1 vccd1 vccd1 sky130_fd_sc_hd__decap_3
XFILLER_0_81_373 vssd1 vssd1 vccd1 vccd1 sky130_ef_sc_hd__decap_12
XFILLER_0_14_418 vssd1 vssd1 vccd1 vccd1 sky130_fd_sc_hd__fill_2
X_4410_ _0751_ _0752_ vssd1 vssd1 vccd1 vccd1 _0753_ sky130_fd_sc_hd__nand2_1
X_5390_ _0606_ egd_top.BitStream_buffer.BS_buffer\[73\] vssd1 vssd1 vccd1 vccd1 _1726_
+ sky130_fd_sc_hd__nand2_1
X_4341_ egd_top.BitStream_buffer.BS_buffer\[35\] vssd1 vssd1 vccd1 vccd1 _0684_ sky130_fd_sc_hd__inv_2
XFILLER_0_22_495 vssd1 vssd1 vccd1 vccd1 sky130_fd_sc_hd__decap_4
X_7060_ _0010_ _0171_ vssd1 vssd1 vccd1 vccd1 egd_top.BitStream_buffer.BS_buffer\[85\]