*SPEF "ieee 1481-1999"
*DESIGN "egd_top"
*DATE "11:11:11 Fri 11 11, 1111"
*VENDOR "OpenRCX"
*PROGRAM "Parallel Extraction"
*VERSION "1.0"
*DESIGN_FLOW "NAME_SCOPE LOCAL" "PIN_CAP NONE"
*DIVIDER /
*DELIMITER :
*BUS_DELIMITER []
*T_UNIT 1 NS
*C_UNIT 1 PF
*R_UNIT 1 OHM
*L_UNIT 1 HENRY

*NAME_MAP
*1 BitStream_buffer_input[0]
*2 BitStream_buffer_input[10]
*3 BitStream_buffer_input[11]
*4 BitStream_buffer_input[12]
*5 BitStream_buffer_input[13]
*6 BitStream_buffer_input[14]
*7 BitStream_buffer_input[15]
*8 BitStream_buffer_input[1]
*9 BitStream_buffer_input[2]
*10 BitStream_buffer_input[3]
*11 BitStream_buffer_input[4]
*12 BitStream_buffer_input[5]
*13 BitStream_buffer_input[6]
*14 BitStream_buffer_input[7]
*15 BitStream_buffer_input[8]
*16 BitStream_buffer_input[9]
*17 clk
*18 exp_golomb_decoding_output[0]
*19 exp_golomb_decoding_output[1]
*20 exp_golomb_decoding_output[2]
*21 exp_golomb_decoding_output[3]
*22 exp_golomb_decoding_output[4]
*23 exp_golomb_decoding_output[5]
*24 exp_golomb_decoding_output[6]
*25 exp_golomb_decoding_output[7]
*26 exp_golomb_sel[0]
*27 exp_golomb_sel[1]
*28 half_fill_counter[0]
*29 half_fill_counter[1]
*30 half_fill_counter[2]
*31 reset_counter[0]
*32 reset_counter[1]
*33 reset_counter[2]
*34 reset_counter[3]
*35 reset_n
*38 BitStream_buffer\.BS_buffer\[0\]
*39 BitStream_buffer\.BS_buffer\[100\]
*40 BitStream_buffer\.BS_buffer\[101\]
*41 BitStream_buffer\.BS_buffer\[102\]
*42 BitStream_buffer\.BS_buffer\[103\]
*43 BitStream_buffer\.BS_buffer\[104\]
*44 BitStream_buffer\.BS_buffer\[105\]
*45 BitStream_buffer\.BS_buffer\[106\]
*46 BitStream_buffer\.BS_buffer\[107\]
*47 BitStream_buffer\.BS_buffer\[108\]
*48 BitStream_buffer\.BS_buffer\[109\]
*49 BitStream_buffer\.BS_buffer\[10\]
*50 BitStream_buffer\.BS_buffer\[110\]
*51 BitStream_buffer\.BS_buffer\[111\]
*52 BitStream_buffer\.BS_buffer\[112\]
*53 BitStream_buffer\.BS_buffer\[113\]
*54 BitStream_buffer\.BS_buffer\[114\]
*55 BitStream_buffer\.BS_buffer\[115\]
*56 BitStream_buffer\.BS_buffer\[116\]
*57 BitStream_buffer\.BS_buffer\[117\]
*58 BitStream_buffer\.BS_buffer\[118\]
*59 BitStream_buffer\.BS_buffer\[119\]
*60 BitStream_buffer\.BS_buffer\[11\]
*61 BitStream_buffer\.BS_buffer\[120\]
*62 BitStream_buffer\.BS_buffer\[121\]
*63 BitStream_buffer\.BS_buffer\[122\]
*64 BitStream_buffer\.BS_buffer\[123\]
*65 BitStream_buffer\.BS_buffer\[124\]
*66 BitStream_buffer\.BS_buffer\[125\]
*67 BitStream_buffer\.BS_buffer\[126\]
*68 BitStream_buffer\.BS_buffer\[127\]
*69 BitStream_buffer\.BS_buffer\[12\]
*70 BitStream_buffer\.BS_buffer\[13\]
*71 BitStream_buffer\.BS_buffer\[14\]
*72 BitStream_buffer\.BS_buffer\[15\]
*73 BitStream_buffer\.BS_buffer\[16\]
*74 BitStream_buffer\.BS_buffer\[17\]
*75 BitStream_buffer\.BS_buffer\[18\]
*76 BitStream_buffer\.BS_buffer\[19\]
*77 BitStream_buffer\.BS_buffer\[1\]
*78 BitStream_buffer\.BS_buffer\[20\]
*79 BitStream_buffer\.BS_buffer\[21\]
*80 BitStream_buffer\.BS_buffer\[22\]
*81 BitStream_buffer\.BS_buffer\[23\]
*82 BitStream_buffer\.BS_buffer\[24\]
*83 BitStream_buffer\.BS_buffer\[25\]
*84 BitStream_buffer\.BS_buffer\[26\]
*85 BitStream_buffer\.BS_buffer\[27\]
*86 BitStream_buffer\.BS_buffer\[28\]
*87 BitStream_buffer\.BS_buffer\[29\]
*88 BitStream_buffer\.BS_buffer\[2\]
*89 BitStream_buffer\.BS_buffer\[30\]
*90 BitStream_buffer\.BS_buffer\[31\]
*91 BitStream_buffer\.BS_buffer\[32\]
*92 BitStream_buffer\.BS_buffer\[33\]
*93 BitStream_buffer\.BS_buffer\[34\]
*94 BitStream_buffer\.BS_buffer\[35\]
*95 BitStream_buffer\.BS_buffer\[36\]
*96 BitStream_buffer\.BS_buffer\[37\]
*97 BitStream_buffer\.BS_buffer\[38\]
*98 BitStream_buffer\.BS_buffer\[39\]
*99 BitStream_buffer\.BS_buffer\[3\]
*100 BitStream_buffer\.BS_buffer\[40\]
*101 BitStream_buffer\.BS_buffer\[41\]
*102 BitStream_buffer\.BS_buffer\[42\]
*103 BitStream_buffer\.BS_buffer\[43\]
*104 BitStream_buffer\.BS_buffer\[44\]
*105 BitStream_buffer\.BS_buffer\[45\]
*106 BitStream_buffer\.BS_buffer\[46\]
*107 BitStream_buffer\.BS_buffer\[47\]
*108 BitStream_buffer\.BS_buffer\[48\]
*109 BitStream_buffer\.BS_buffer\[49\]
*110 BitStream_buffer\.BS_buffer\[4\]
*111 BitStream_buffer\.BS_buffer\[50\]
*112 BitStream_buffer\.BS_buffer\[51\]
*113 BitStream_buffer\.BS_buffer\[52\]
*114 BitStream_buffer\.BS_buffer\[53\]
*115 BitStream_buffer\.BS_buffer\[54\]
*116 BitStream_buffer\.BS_buffer\[55\]
*117 BitStream_buffer\.BS_buffer\[56\]
*118 BitStream_buffer\.BS_buffer\[57\]
*119 BitStream_buffer\.BS_buffer\[58\]
*120 BitStream_buffer\.BS_buffer\[59\]
*121 BitStream_buffer\.BS_buffer\[5\]
*122 BitStream_buffer\.BS_buffer\[60\]
*123 BitStream_buffer\.BS_buffer\[61\]
*124 BitStream_buffer\.BS_buffer\[62\]
*125 BitStream_buffer\.BS_buffer\[63\]
*126 BitStream_buffer\.BS_buffer\[64\]
*127 BitStream_buffer\.BS_buffer\[65\]
*128 BitStream_buffer\.BS_buffer\[66\]
*129 BitStream_buffer\.BS_buffer\[67\]
*130 BitStream_buffer\.BS_buffer\[68\]
*131 BitStream_buffer\.BS_buffer\[69\]
*132 BitStream_buffer\.BS_buffer\[6\]
*133 BitStream_buffer\.BS_buffer\[70\]
*134 BitStream_buffer\.BS_buffer\[71\]
*135 BitStream_buffer\.BS_buffer\[72\]
*136 BitStream_buffer\.BS_buffer\[73\]
*137 BitStream_buffer\.BS_buffer\[74\]
*138 BitStream_buffer\.BS_buffer\[75\]
*139 BitStream_buffer\.BS_buffer\[76\]
*140 BitStream_buffer\.BS_buffer\[77\]
*141 BitStream_buffer\.BS_buffer\[78\]
*142 BitStream_buffer\.BS_buffer\[79\]
*143 BitStream_buffer\.BS_buffer\[7\]
*144 BitStream_buffer\.BS_buffer\[80\]
*145 BitStream_buffer\.BS_buffer\[81\]
*146 BitStream_buffer\.BS_buffer\[82\]
*147 BitStream_buffer\.BS_buffer\[83\]
*148 BitStream_buffer\.BS_buffer\[84\]
*149 BitStream_buffer\.BS_buffer\[85\]
*150 BitStream_buffer\.BS_buffer\[86\]
*151 BitStream_buffer\.BS_buffer\[87\]
*152 BitStream_buffer\.BS_buffer\[88\]
*153 BitStream_buffer\.BS_buffer\[89\]
*154 BitStream_buffer\.BS_buffer\[8\]
*155 BitStream_buffer\.BS_buffer\[90\]
*156 BitStream_buffer\.BS_buffer\[91\]
*157 BitStream_buffer\.BS_buffer\[92\]
*158 BitStream_buffer\.BS_buffer\[93\]
*159 BitStream_buffer\.BS_buffer\[94\]
*160 BitStream_buffer\.BS_buffer\[95\]
*161 BitStream_buffer\.BS_buffer\[96\]
*162 BitStream_buffer\.BS_buffer\[97\]
*163 BitStream_buffer\.BS_buffer\[98\]
*164 BitStream_buffer\.BS_buffer\[99\]
*165 BitStream_buffer\.BS_buffer\[9\]
*166 BitStream_buffer\.BitStream_buffer_output\[10\]
*167 BitStream_buffer\.BitStream_buffer_output\[11\]
*168 BitStream_buffer\.BitStream_buffer_output\[12\]
*169 BitStream_buffer\.BitStream_buffer_output\[13\]
*170 BitStream_buffer\.BitStream_buffer_output\[14\]
*171 BitStream_buffer\.BitStream_buffer_output\[15\]
*172 BitStream_buffer\.BitStream_buffer_output\[1\]
*173 BitStream_buffer\.BitStream_buffer_output\[2\]
*174 BitStream_buffer\.BitStream_buffer_output\[3\]
*175 BitStream_buffer\.BitStream_buffer_output\[4\]
*176 BitStream_buffer\.BitStream_buffer_output\[5\]
*177 BitStream_buffer\.BitStream_buffer_output\[6\]
*178 BitStream_buffer\.BitStream_buffer_output\[7\]
*179 BitStream_buffer\.BitStream_buffer_output\[8\]
*180 BitStream_buffer\.BitStream_buffer_output\[9\]
*181 BitStream_buffer\.BitStream_buffer_valid_n
*182 BitStream_buffer\.buffer_index\[4\]
*183 BitStream_buffer\.buffer_index\[5\]
*184 BitStream_buffer\.buffer_index\[6\]
*185 BitStream_buffer\.exp_golomb_len\[1\]
*186 BitStream_buffer\.exp_golomb_len\[2\]
*187 BitStream_buffer\.exp_golomb_len\[3\]
*188 BitStream_buffer\.pc\[1\]
*189 BitStream_buffer\.pc\[2\]
*190 BitStream_buffer\.pc\[3\]
*191 BitStream_buffer\.pc\[4\]
*192 BitStream_buffer\.pc\[5\]
*193 BitStream_buffer\.pc\[6\]
*194 BitStream_buffer\.pc_previous\[0\]
*195 BitStream_buffer\.pc_previous\[1\]
*196 BitStream_buffer\.pc_previous\[2\]
*197 BitStream_buffer\.pc_previous\[3\]
*198 BitStream_buffer\.pc_previous\[4\]
*199 BitStream_buffer\.pc_previous\[5\]
*200 BitStream_buffer\.pc_previous\[6\]
*201 _0161_
*202 _0162_
*203 _0163_
*204 _0164_
*205 _0165_
*206 _0166_
*207 _0167_
*208 _0168_
*209 _0169_
*210 _0170_
*211 _0171_
*212 _0172_
*213 _0173_
*214 _0174_
*215 _0175_
*216 _0176_
*217 _0177_
*218 _0178_
*219 _0179_
*220 _0180_
*221 _0181_
*222 _0182_
*223 _0183_
*224 _0184_
*225 _0185_
*226 _0186_
*227 _0187_
*228 _0188_
*229 _0189_
*230 _0190_
*231 _0191_
*232 _0192_
*233 _0193_
*234 _0194_
*235 _0195_
*236 _0196_
*237 _0197_
*238 _0198_
*239 _0199_
*240 _0200_
*241 _0201_
*242 _0202_
*243 _0203_
*244 _0204_
*245 _0205_
*246 _0206_
*247 _0207_
*248 _0208_
*249 _0209_
*250 _0210_
*251 _0211_
*252 _0212_
*253 _0213_
*254 _0214_
*255 _0215_
*256 _0216_
*257 _0217_
*258 _0218_
*259 _0219_
*260 _0220_
*261 _0221_
*262 _0222_
*263 _0223_
*264 _0224_
*265 _0225_
*266 _0226_
*267 _0227_
*268 _0228_
*269 _0229_
*270 _0230_
*271 _0231_
*272 _0232_
*273 _0233_
*274 _0234_
*275 _0235_
*276 _0236_
*277 _0237_
*278 _0238_
*279 _0239_
*280 _0240_
*281 _0241_
*282 _0242_
*283 _0243_
*284 _0244_
*285 _0245_
*286 _0246_
*287 _0247_
*288 _0248_
*289 _0249_
*290 _0250_
*291 _0251_
*292 _0252_
*293 _0253_
*294 _0254_
*295 _0255_
*296 _0256_
*297 _0257_
*298 _0258_
*299 _0259_
*300 _0260_
*301 _0261_
*302 _0262_
*303 _0263_
*304 _0264_
*305 _0265_
*306 _0266_
*307 _0267_
*308 _0268_
*309 _0269_
*310 _0270_
*311 _0271_
*312 _0272_
*313 _0273_
*314 _0274_
*315 _0275_
*316 _0276_
*317 _0277_
*318 _0278_
*319 _0279_
*320 _0280_
*321 _0281_
*322 _0282_
*323 _0283_
*324 _0284_
*325 _0285_
*326 _0286_
*327 _0287_
*328 _0288_
*329 _0289_
*330 _0290_
*331 _0291_
*332 _0292_
*333 _0293_
*334 _0294_
*335 _0295_
*336 _0296_
*337 _0297_
*338 _0298_
*339 _0299_
*340 _0300_
*341 _0301_
*342 _0302_
*343 _0303_
*344 _0304_
*345 _0305_
*346 _0306_
*347 _0307_
*348 _0308_
*349 _0309_
*350 _0310_
*351 _0311_
*352 _0312_
*353 _0313_
*354 _0314_
*355 _0315_
*356 _0316_
*357 _0317_
*358 _0318_
*359 _0319_
*360 _0320_
*361 _0321_
*362 _0322_
*363 _0323_
*364 _0324_
*365 _0325_
*366 _0326_
*367 _0327_
*368 _0328_
*369 _0329_
*370 _0330_
*371 _0331_
*372 _0332_
*373 _0333_
*374 _0334_
*375 _0335_
*376 _0336_
*377 _0337_
*378 _0338_
*379 _0339_
*380 _0340_
*381 _0341_
*382 _0342_
*383 _0343_
*384 _0344_
*385 _0345_
*386 _0346_
*387 _0347_
*388 _0348_
*389 _0349_
*390 _0350_
*391 _0351_
*392 _0352_
*393 _0353_
*394 _0354_
*395 _0355_
*396 _0356_
*397 _0357_
*398 _0358_
*399 _0359_
*400 _0360_
*401 _0361_
*402 _0362_
*403 _0363_
*404 _0364_
*405 _0365_
*406 _0366_
*407 _0367_
*408 _0368_
*409 _0369_
*410 _0370_
*411 _0371_
*412 _0372_
*413 _0373_
*414 _0374_
*415 _0375_
*416 _0376_
*417 _0377_
*418 _0378_
*419 _0379_
*420 _0380_
*421 _0381_
*422 _0382_
*423 _0383_
*424 _0384_
*425 _0385_
*426 _0386_
*427 _0387_
*428 _0388_
*429 _0389_
*430 _0390_
*431 _0391_
*432 _0392_
*433 _0393_
*434 _0394_
*435 _0395_
*436 _0396_
*437 _0397_
*438 _0398_
*439 _0399_
*440 _0400_
*441 _0401_
*442 _0402_
*443 _0403_
*444 _0404_
*445 _0405_
*446 _0406_
*447 _0407_
*448 _0408_
*449 _0409_
*450 _0410_
*451 _0411_
*452 _0412_
*453 _0413_
*454 _0414_
*455 _0415_
*456 _0416_
*457 _0417_
*458 _0418_
*459 _0419_
*460 _0420_
*461 _0421_
*462 _0422_
*463 _0423_
*464 _0424_
*465 _0425_
*466 _0426_
*467 _0427_
*468 _0428_
*469 _0429_
*470 _0430_
*471 _0431_
*472 _0432_
*473 _0433_
*474 _0434_
*475 _0435_
*476 _0436_
*477 _0437_
*478 _0438_
*479 _0439_
*480 _0440_
*481 _0441_
*482 _0442_
*483 _0443_
*484 _0444_
*485 _0445_
*486 _0446_
*487 _0447_
*488 _0448_
*489 _0449_
*490 _0450_
*491 _0451_
*492 _0452_
*493 _0453_
*494 _0454_
*495 _0455_
*496 _0456_
*497 _0457_
*498 _0458_
*499 _0459_
*500 _0460_
*501 _0461_
*502 _0462_
*503 _0463_
*504 _0464_
*505 _0465_
*506 _0466_
*507 _0467_
*508 _0468_
*509 _0469_
*510 _0470_
*511 _0471_
*512 _0472_
*513 _0473_
*514 _0474_
*515 _0475_
*516 _0476_
*517 _0477_
*518 _0478_
*519 _0479_
*520 _0480_
*521 _0481_
*522 _0482_
*523 _0483_
*524 _0484_
*525 _0485_
*526 _0486_
*527 _0487_
*528 _0488_
*529 _0489_
*530 _0490_
*531 _0491_
*532 _0492_
*533 _0493_
*534 _0494_
*535 _0495_
*536 _0496_
*537 _0497_
*538 _0498_
*539 _0499_
*540 _0500_
*541 _0501_
*542 _0502_
*543 _0503_
*544 _0504_
*545 _0505_
*546 _0506_
*547 _0507_
*548 _0508_
*549 _0509_
*550 _0510_
*551 _0511_
*552 _0512_
*553 _0513_
*554 _0514_
*555 _0515_
*556 _0516_
*557 _0517_
*558 _0518_
*559 _0519_
*560 _0520_
*561 _0521_
*562 _0522_
*563 _0523_
*564 _0524_
*565 _0525_
*566 _0526_
*567 _0527_
*568 _0528_
*569 _0529_
*570 _0530_
*571 _0531_
*572 _0532_
*573 _0533_
*574 _0534_
*575 _0535_
*576 _0536_
*577 _0537_
*578 _0538_
*579 _0539_
*580 _0540_
*581 _0541_
*582 _0542_
*583 _0543_
*584 _0544_
*585 _0545_
*586 _0546_
*587 _0547_
*588 _0548_
*589 _0549_
*590 _0550_
*591 _0551_
*592 _0552_
*593 _0553_
*594 _0554_
*595 _0555_
*596 _0556_
*597 _0557_
*598 _0558_
*599 _0559_
*600 _0560_
*601 _0561_
*602 _0562_
*603 _0563_
*604 _0564_
*605 _0565_
*606 _0566_
*607 _0567_
*608 _0568_
*609 _0569_
*610 _0570_
*611 _0571_
*612 _0572_
*613 _0573_
*614 _0574_
*615 _0575_
*616 _0576_
*617 _0577_
*618 _0578_
*619 _0579_
*620 _0580_
*621 _0581_
*622 _0582_
*623 _0583_
*624 _0584_
*625 _0585_
*626 _0586_
*627 _0587_
*628 _0588_
*629 _0589_
*630 _0590_
*631 _0591_
*632 _0592_
*633 _0593_
*634 _0594_
*635 _0595_
*636 _0596_
*637 _0597_
*638 _0598_
*639 _0599_
*640 _0600_
*641 _0601_
*642 _0602_
*643 _0603_
*644 _0604_
*645 _0605_
*646 _0606_
*647 _0607_
*648 _0608_
*649 _0609_
*650 _0610_
*651 _0611_
*652 _0612_
*653 _0613_
*654 _0614_
*655 _0615_
*656 _0616_
*657 _0617_
*658 _0618_
*659 _0619_
*660 _0620_
*661 _0621_
*662 _0622_
*663 _0623_
*664 _0624_
*665 _0625_
*666 _0626_
*667 _0627_
*668 _0628_
*669 _0629_
*670 _0630_
*671 _0631_
*672 _0632_
*673 _0633_
*674 _0634_
*675 _0635_
*676 _0636_
*677 _0637_
*678 _0638_
*679 _0639_
*680 _0640_
*681 _0641_
*682 _0642_
*683 _0643_
*684 _0644_
*685 _0645_
*686 _0646_
*687 _0647_
*688 _0648_
*689 _0649_
*690 _0650_
*691 _0651_
*692 _0652_
*693 _0653_
*694 _0654_
*695 _0655_
*696 _0656_
*697 _0657_
*698 _0658_
*699 _0659_
*700 _0660_
*701 _0661_
*702 _0662_
*703 _0663_
*704 _0664_
*705 _0665_
*706 _0666_
*707 _0667_
*708 _0668_
*709 _0669_
*710 _0670_
*711 _0671_
*712 _0672_
*713 _0673_
*714 _0674_
*715 _0675_
*716 _0676_
*717 _0677_
*718 _0678_
*719 _0679_
*720 _0680_
*721 _0681_
*722 _0682_
*723 _0683_
*724 _0684_
*725 _0685_
*726 _0686_
*727 _0687_
*728 _0688_
*729 _0689_
*730 _0690_
*731 _0691_
*732 _0692_
*733 _0693_
*734 _0694_
*735 _0695_
*736 _0696_
*737 _0697_
*738 _0698_
*739 _0699_
*740 _0700_
*741 _0701_
*742 _0702_
*743 _0703_
*744 _0704_
*745 _0705_
*746 _0706_
*747 _0707_
*748 _0708_
*749 _0709_
*750 _0710_
*751 _0711_
*752 _0712_
*753 _0713_
*754 _0714_
*755 _0715_
*756 _0716_
*757 _0717_
*758 _0718_
*759 _0719_
*760 _0720_
*761 _0721_
*762 _0722_
*763 _0723_
*764 _0724_
*765 _0725_
*766 _0726_
*767 _0727_
*768 _0728_
*769 _0729_
*770 _0730_
*771 _0731_
*772 _0732_
*773 _0733_
*774 _0734_
*775 _0735_
*776 _0736_
*777 _0737_
*778 _0738_
*779 _0739_
*780 _0740_
*781 _0741_
*782 _0742_
*783 _0743_
*784 _0744_
*785 _0745_
*786 _0746_
*787 _0747_
*788 _0748_
*789 _0749_
*790 _0750_
*791 _0751_
*792 _0752_
*793 _0753_
*794 _0754_
*795 _0755_
*796 _0756_
*797 _0757_
*798 _0758_
*799 _0759_
*800 _0760_
*801 _0761_
*802 _0762_
*803 _0763_
*804 _0764_
*805 _0765_
*806 _0766_
*807 _0767_
*808 _0768_
*809 _0769_
*810 _0770_
*811 _0771_
*812 _0772_
*813 _0773_
*814 _0774_
*815 _0775_
*816 _0776_
*817 _0777_
*818 _0778_
*819 _0779_
*820 _0780_
*821 _0781_
*822 _0782_
*823 _0783_
*824 _0784_
*825 _0785_
*826 _0786_
*827 _0787_
*828 _0788_
*829 _0789_
*830 _0790_
*831 _0791_
*832 _0792_
*833 _0793_
*834 _0794_
*835 _0795_
*836 _0796_
*837 _0797_
*838 _0798_
*839 _0799_
*840 _0800_
*841 _0801_
*842 _0802_
*843 _0803_
*844 _0804_
*845 _0805_
*846 _0806_
*847 _0807_
*848 _0808_
*849 _0809_
*850 _0810_
*851 _0811_
*852 _0812_
*853 _0813_
*854 _0814_
*855 _0815_
*856 _0816_
*857 _0817_
*858 _0818_
*859 _0819_
*860 _0820_
*861 _0821_
*862 _0822_
*863 _0823_
*864 _0824_
*865 _0825_
*866 _0826_
*867 _0827_
*868 _0828_
*869 _0829_
*870 _0830_
*871 _0831_
*872 _0832_
*873 _0833_
*874 _0834_
*875 _0835_
*876 _0836_
*877 _0837_
*878 _0838_
*879 _0839_
*880 _0840_
*881 _0841_
*882 _0842_
*883 _0843_
*884 _0844_
*885 _0845_
*886 _0846_
*887 _0847_
*888 _0848_
*889 _0849_
*890 _0850_
*891 _0851_
*892 _0852_
*893 _0853_
*894 _0854_
*895 _0855_
*896 _0856_
*897 _0857_
*898 _0858_
*899 _0859_
*900 _0860_
*901 _0861_
*902 _0862_
*903 _0863_
*904 _0864_
*905 _0865_
*906 _0866_
*907 _0867_
*908 _0868_
*909 _0869_
*910 _0870_
*911 _0871_
*912 _0872_
*913 _0873_
*914 _0874_
*915 _0875_
*916 _0876_
*917 _0877_
*918 _0878_
*919 _0879_
*920 _0880_
*921 _0881_
*922 _0882_
*923 _0883_
*924 _0884_
*925 _0885_
*926 _0886_
*927 _0887_
*928 _0888_
*929 _0889_
*930 _0890_
*931 _0891_
*932 _0892_
*933 _0893_
*934 _0894_
*935 _0895_
*936 _0896_
*937 _0897_
*938 _0898_
*939 _0899_
*940 _0900_
*941 _0901_
*942 _0902_
*943 _0903_
*944 _0904_
*945 _0905_
*946 _0906_
*947 _0907_
*948 _0908_
*949 _0909_
*950 _0910_
*951 _0911_
*952 _0912_
*953 _0913_
*954 _0914_
*955 _0915_
*956 _0916_
*957 _0917_
*958 _0918_
*959 _0919_
*960 _0920_
*961 _0921_
*962 _0922_
*963 _0923_
*964 _0924_
*965 _0925_
*966 _0926_
*967 _0927_
*968 _0928_
*969 _0929_
*970 _0930_
*971 _0931_
*972 _0932_
*973 _0933_
*974 _0934_
*975 _0935_
*976 _0936_
*977 _0937_
*978 _0938_
*979 _0939_
*980 _0940_
*981 _0941_
*982 _0942_
*983 _0943_
*984 _0944_
*985 _0945_
*986 _0946_
*987 _0947_
*988 _0948_
*989 _0949_
*990 _0950_
*991 _0951_
*992 _0952_
*993 _0953_
*994 _0954_
*995 _0955_
*996 _0956_
*997 _0957_
*998 _0958_
*999 _0959_
*1000 _0960_
*1001 _0961_
*1002 _0962_
*1003 _0963_
*1004 _0964_
*1005 _0965_
*1006 _0966_
*1007 _0967_
*1008 _0968_
*1009 _0969_
*1010 _0970_
*1011 _0971_
*1012 _0972_
*1013 _0973_
*1014 _0974_
*1015 _0975_
*1016 _0976_
*1017 _0977_
*1018 _0978_
*1019 _0979_
*1020 _0980_
*1021 _0981_
*1022 _0982_
*1023 _0983_
*1024 _0984_
*1025 _0985_
*1026 _0986_
*1027 _0987_
*1028 _0988_
*1029 _0989_
*1030 _0990_
*1031 _0991_
*1032 _0992_
*1033 _0993_
*1034 _0994_
*1035 _0995_
*1036 _0996_
*1037 _0997_
*1038 _0998_
*1039 _0999_
*1040 _1000_
*1041 _1001_
*1042 _1002_
*1043 _1003_
*1044 _1004_
*1045 _1005_
*1046 _1006_
*1047 _1007_
*1048 _1008_
*1049 _1009_
*1050 _1010_
*1051 _1011_
*1052 _1012_
*1053 _1013_
*1054 _1014_
*1055 _1015_
*1056 _1016_
*1057 _1017_
*1058 _1018_
*1059 _1019_
*1060 _1020_
*1061 _1021_
*1062 _1022_
*1063 _1023_
*1064 _1024_
*1065 _1025_
*1066 _1026_
*1067 _1027_
*1068 _1028_
*1069 _1029_
*1070 _1030_
*1071 _1031_
*1072 _1032_
*1073 _1033_
*1074 _1034_
*1075 _1035_
*1076 _1036_
*1077 _1037_
*1078 _1038_
*1079 _1039_
*1080 _1040_
*1081 _1041_
*1082 _1042_
*1083 _1043_
*1084 _1044_
*1085 _1045_
*1086 _1046_
*1087 _1047_
*1088 _1048_
*1089 _1049_
*1090 _1050_
*1091 _1051_
*1092 _1052_
*1093 _1053_
*1094 _1054_
*1095 _1055_
*1096 _1056_
*1097 _1057_
*1098 _1058_
*1099 _1059_
*1100 _1060_
*1101 _1061_
*1102 _1062_
*1103 _1063_
*1104 _1064_
*1105 _1065_
*1106 _1066_
*1107 _1067_
*1108 _1068_
*1109 _1069_
*1110 _1070_
*1111 _1071_
*1112 _1072_
*1113 _1073_
*1114 _1074_
*1115 _1075_
*1116 _1076_
*1117 _1077_
*1118 _1078_
*1119 _1079_
*1120 _1080_
*1121 _1081_
*1122 _1082_
*1123 _1083_
*1124 _1084_
*1125 _1085_
*1126 _1086_
*1127 _1087_
*1128 _1088_
*1129 _1089_
*1130 _1090_
*1131 _1091_
*1132 _1092_
*1133 _1093_
*1134 _1094_
*1135 _1095_
*1136 _1096_
*1137 _1097_
*1138 _1098_
*1139 _1099_
*1140 _1100_
*1141 _1101_
*1142 _1102_
*1143 _1103_
*1144 _1104_
*1145 _1105_
*1146 _1106_
*1147 _1107_
*1148 _1108_
*1149 _1109_
*1150 _1110_
*1151 _1111_
*1152 _1112_
*1153 _1113_
*1154 _1114_
*1155 _1115_
*1156 _1116_
*1157 _1117_
*1158 _1118_
*1159 _1119_
*1160 _1120_
*1161 _1121_
*1162 _1122_
*1163 _1123_
*1164 _1124_
*1165 _1125_
*1166 _1126_
*1167 _1127_
*1168 _1128_
*1169 _1129_
*1170 _1130_
*1171 _1131_
*1172 _1132_
*1173 _1133_
*1174 _1134_
*1175 _1135_
*1176 _1136_
*1177 _1137_
*1178 _1138_
*1179 _1139_
*1180 _1140_
*1181 _1141_
*1182 _1142_
*1183 _1143_
*1184 _1144_
*1185 _1145_
*1186 _1146_
*1187 _1147_
*1188 _1148_
*1189 _1149_
*1190 _1150_
*1191 _1151_
*1192 _1152_
*1193 _1153_
*1194 _1154_
*1195 _1155_
*1196 _1156_
*1197 _1157_
*1198 _1158_
*1199 _1159_
*1200 _1160_
*1201 _1161_
*1202 _1162_
*1203 _1163_
*1204 _1164_
*1205 _1165_
*1206 _1166_
*1207 _1167_
*1208 _1168_
*1209 _1169_
*1210 _1170_
*1211 _1171_
*1212 _1172_
*1213 _1173_
*1214 _1174_
*1215 _1175_
*1216 _1176_
*1217 _1177_
*1218 _1178_
*1219 _1179_
*1220 _1180_
*1221 _1181_
*1222 _1182_
*1223 _1183_
*1224 _1184_
*1225 _1185_
*1226 _1186_
*1227 _1187_
*1228 _1188_
*1229 _1189_
*1230 _1190_
*1231 _1191_
*1232 _1192_
*1233 _1193_
*1234 _1194_
*1235 _1195_
*1236 _1196_
*1237 _1197_
*1238 _1198_
*1239 _1199_
*1240 _1200_
*1241 _1201_
*1242 _1202_
*1243 _1203_
*1244 _1204_
*1245 _1205_
*1246 _1206_
*1247 _1207_
*1248 _1208_
*1249 _1209_
*1250 _1210_
*1251 _1211_
*1252 _1212_
*1253 _1213_
*1254 _1214_
*1255 _1215_
*1256 _1216_
*1257 _1217_
*1258 _1218_
*1259 _1219_
*1260 _1220_
*1261 _1221_
*1262 _1222_
*1263 _1223_
*1264 _1224_
*1265 _1225_
*1266 _1226_
*1267 _1227_
*1268 _1228_
*1269 _1229_
*1270 _1230_
*1271 _1231_
*1272 _1232_
*1273 _1233_
*1274 _1234_
*1275 _1235_
*1276 _1236_
*1277 _1237_
*1278 _1238_
*1279 _1239_
*1280 _1240_
*1281 _1241_
*1282 _1242_
*1283 _1243_
*1284 _1244_
*1285 _1245_
*1286 _1246_
*1287 _1247_
*1288 _1248_
*1289 _1249_
*1290 _1250_
*1291 _1251_
*1292 _1252_
*1293 _1253_
*1294 _1254_
*1295 _1255_
*1296 _1256_
*1297 _1257_
*1298 _1258_
*1299 _1259_
*1300 _1260_
*1301 _1261_
*1302 _1262_
*1303 _1263_
*1304 _1264_
*1305 _1265_
*1306 _1266_
*1307 _1267_
*1308 _1268_
*1309 _1269_
*1310 _1270_
*1311 _1271_
*1312 _1272_
*1313 _1273_
*1314 _1274_
*1315 _1275_
*1316 _1276_
*1317 _1277_
*1318 _1278_
*1319 _1279_
*1320 _1280_
*1321 _1281_
*1322 _1282_
*1323 _1283_
*1324 _1284_
*1325 _1285_
*1326 _1286_
*1327 _1287_
*1328 _1288_
*1329 _1289_
*1330 _1290_
*1331 _1291_
*1332 _1292_
*1333 _1293_
*1334 _1294_
*1335 _1295_
*1336 _1296_
*1337 _1297_
*1338 _1298_
*1339 _1299_
*1340 _1300_
*1341 _1301_
*1342 _1302_
*1343 _1303_
*1344 _1304_
*1345 _1305_
*1346 _1306_
*1347 _1307_
*1348 _1308_
*1349 _1309_
*1350 _1310_
*1351 _1311_
*1352 _1312_
*1353 _1313_
*1354 _1314_
*1355 _1315_
*1356 _1316_
*1357 _1317_
*1358 _1318_
*1359 _1319_
*1360 _1320_
*1361 _1321_
*1362 _1322_
*1363 _1323_
*1364 _1324_
*1365 _1325_
*1366 _1326_
*1367 _1327_
*1368 _1328_
*1369 _1329_
*1370 _1330_
*1371 _1331_
*1372 _1332_
*1373 _1333_
*1374 _1334_
*1375 _1335_
*1376 _1336_
*1377 _1337_
*1378 _1338_
*1379 _1339_
*1380 _1340_
*1381 _1341_
*1382 _1342_
*1383 _1343_
*1384 _1344_
*1385 _1345_
*1386 _1346_
*1387 _1347_
*1388 _1348_
*1389 _1349_
*1390 _1350_
*1391 _1351_
*1392 _1352_
*1393 _1353_
*1394 _1354_
*1395 _1355_
*1396 _1356_
*1397 _1357_
*1398 _1358_
*1399 _1359_
*1400 _1360_
*1401 _1361_
*1402 _1362_
*1403 _1363_
*1404 _1364_
*1405 _1365_
*1406 _1366_
*1407 _1367_
*1408 _1368_
*1409 _1369_
*1410 _1370_
*1411 _1371_
*1412 _1372_
*1413 _1373_
*1414 _1374_
*1415 _1375_
*1416 _1376_
*1417 _1377_
*1418 _1378_
*1419 _1379_
*1420 _1380_
*1421 _1381_
*1422 _1382_
*1423 _1383_
*1424 _1384_
*1425 _1385_
*1426 _1386_
*1427 _1387_
*1428 _1388_
*1429 _1389_
*1430 _1390_
*1431 _1391_
*1432 _1392_
*1433 _1393_
*1434 _1394_
*1435 _1395_
*1436 _1396_
*1437 _1397_
*1438 _1398_
*1439 _1399_
*1440 _1400_
*1441 _1401_
*1442 _1402_
*1443 _1403_
*1444 _1404_
*1445 _1405_
*1446 _1406_
*1447 _1407_
*1448 _1408_
*1449 _1409_
*1450 _1410_
*1451 _1411_
*1452 _1412_
*1453 _1413_
*1454 _1414_
*1455 _1415_
*1456 _1416_
*1457 _1417_
*1458 _1418_
*1459 _1419_
*1460 _1420_
*1461 _1421_
*1462 _1422_
*1463 _1423_
*1464 _1424_
*1465 _1425_
*1466 _1426_
*1467 _1427_
*1468 _1428_
*1469 _1429_
*1470 _1430_
*1471 _1431_
*1472 _1432_
*1473 _1433_
*1474 _1434_
*1475 _1435_
*1476 _1436_
*1477 _1437_
*1478 _1438_
*1479 _1439_
*1480 _1440_
*1481 _1441_
*1482 _1442_
*1483 _1443_
*1484 _1444_
*1485 _1445_
*1486 _1446_
*1487 _1447_
*1488 _1448_
*1489 _1449_
*1490 _1450_
*1491 _1451_
*1492 _1452_
*1493 _1453_
*1494 _1454_
*1495 _1455_
*1496 _1456_
*1497 _1457_
*1498 _1458_
*1499 _1459_
*1500 _1460_
*1501 _1461_
*1502 _1462_
*1503 _1463_
*1504 _1464_
*1505 _1465_
*1506 _1466_
*1507 _1467_
*1508 _1468_
*1509 _1469_
*1510 _1470_
*1511 _1471_
*1512 _1472_
*1513 _1473_
*1514 _1474_
*1515 _1475_
*1516 _1476_
*1517 _1477_
*1518 _1478_
*1519 _1479_
*1520 _1480_
*1521 _1481_
*1522 _1482_
*1523 _1483_
*1524 _1484_
*1525 _1485_
*1526 _1486_
*1527 _1487_
*1528 _1488_
*1529 _1489_
*1530 _1490_
*1531 _1491_
*1532 _1492_
*1533 _1493_
*1534 _1494_
*1535 _1495_
*1536 _1496_
*1537 _1497_
*1538 _1498_
*1539 _1499_
*1540 _1500_
*1541 _1501_
*1542 _1502_
*1543 _1503_
*1544 _1504_
*1545 _1505_
*1546 _1506_
*1547 _1507_
*1548 _1508_
*1549 _1509_
*1550 _1510_
*1551 _1511_
*1552 _1512_
*1553 _1513_
*1554 _1514_
*1555 _1515_
*1556 _1516_
*1557 _1517_
*1558 _1518_
*1559 _1519_
*1560 _1520_
*1561 _1521_
*1562 _1522_
*1563 _1523_
*1564 _1524_
*1565 _1525_
*1566 _1526_
*1567 _1527_
*1568 _1528_
*1569 _1529_
*1570 _1530_
*1571 _1531_
*1572 _1532_
*1573 _1533_
*1574 _1534_
*1575 _1535_
*1576 _1536_
*1577 _1537_
*1578 _1538_
*1579 _1539_
*1580 _1540_
*1581 _1541_
*1582 _1542_
*1583 _1543_
*1584 _1544_
*1585 _1545_
*1586 _1546_
*1587 _1547_
*1588 _1548_
*1589 _1549_
*1590 _1550_
*1591 _1551_
*1592 _1552_
*1593 _1553_
*1594 _1554_
*1595 _1555_
*1596 _1556_
*1597 _1557_
*1598 _1558_
*1599 _1559_
*1600 _1560_
*1601 _1561_
*1602 _1562_
*1603 _1563_
*1604 _1564_
*1605 _1565_
*1606 _1566_
*1607 _1567_
*1608 _1568_
*1609 _1569_
*1610 _1570_
*1611 _1571_
*1612 _1572_
*1613 _1573_
*1614 _1574_
*1615 _1575_
*1616 _1576_
*1617 _1577_
*1618 _1578_
*1619 _1579_
*1620 _1580_
*1621 _1581_
*1622 _1582_
*1623 _1583_
*1624 _1584_
*1625 _1585_
*1626 _1586_
*1627 _1587_
*1628 _1588_
*1629 _1589_
*1630 _1590_
*1631 _1591_
*1632 _1592_
*1633 _1593_
*1634 _1594_
*1635 _1595_
*1636 _1596_
*1637 _1597_
*1638 _1598_
*1639 _1599_
*1640 _1600_
*1641 _1601_
*1642 _1602_
*1643 _1603_
*1644 _1604_
*1645 _1605_
*1646 _1606_
*1647 _1607_
*1648 _1608_
*1649 _1609_
*1650 _1610_
*1651 _1611_
*1652 _1612_
*1653 _1613_
*1654 _1614_
*1655 _1615_
*1656 _1616_
*1657 _1617_
*1658 _1618_
*1659 _1619_
*1660 _1620_
*1661 _1621_
*1662 _1622_
*1663 _1623_
*1664 _1624_
*1665 _1625_
*1666 _1626_
*1667 _1627_
*1668 _1628_
*1669 _1629_
*1670 _1630_
*1671 _1631_
*1672 _1632_
*1673 _1633_
*1674 _1634_
*1675 _1635_
*1676 _1636_
*1677 _1637_
*1678 _1638_
*1679 _1639_
*1680 _1640_
*1681 _1641_
*1682 _1642_
*1683 _1643_
*1684 _1644_
*1685 _1645_
*1686 _1646_
*1687 _1647_
*1688 _1648_
*1689 _1649_
*1690 _1650_
*1691 _1651_
*1692 _1652_
*1693 _1653_
*1694 _1654_
*1695 _1655_
*1696 _1656_
*1697 _1657_
*1698 _1658_
*1699 _1659_
*1700 _1660_
*1701 _1661_
*1702 _1662_
*1703 _1663_
*1704 _1664_
*1705 _1665_
*1706 _1666_
*1707 _1667_
*1708 _1668_
*1709 _1669_
*1710 _1670_
*1711 _1671_
*1712 _1672_
*1713 _1673_
*1714 _1674_
*1715 _1675_
*1716 _1676_
*1717 _1677_
*1718 _1678_
*1719 _1679_
*1720 _1680_
*1721 _1681_
*1722 _1682_
*1723 _1683_
*1724 _1684_
*1725 _1685_
*1726 _1686_
*1727 _1687_
*1728 _1688_
*1729 _1689_
*1730 _1690_
*1731 _1691_
*1732 _1692_
*1733 _1693_
*1734 _1694_
*1735 _1695_
*1736 _1696_
*1737 _1697_
*1738 _1698_
*1739 _1699_
*1740 _1700_
*1741 _1701_
*1742 _1702_
*1743 _1703_
*1744 _1704_
*1745 _1705_
*1746 _1706_
*1747 _1707_
*1748 _1708_
*1749 _1709_
*1750 _1710_
*1751 _1711_
*1752 _1712_
*1753 _1713_
*1754 _1714_
*1755 _1715_
*1756 _1716_
*1757 _1717_
*1758 _1718_
*1759 _1719_
*1760 _1720_
*1761 _1721_
*1762 _1722_
*1763 _1723_
*1764 _1724_
*1765 _1725_
*1766 _1726_
*1767 _1727_
*1768 _1728_
*1769 _1729_
*1770 _1730_
*1771 _1731_
*1772 _1732_
*1773 _1733_
*1774 _1734_
*1775 _1735_
*1776 _1736_
*1777 _1737_
*1778 _1738_
*1779 _1739_
*1780 _1740_
*1781 _1741_
*1782 _1742_
*1783 _1743_
*1784 _1744_
*1785 _1745_
*1786 _1746_
*1787 _1747_
*1788 _1748_
*1789 _1749_
*1790 _1750_
*1791 _1751_
*1792 _1752_
*1793 _1753_
*1794 _1754_
*1795 _1755_
*1796 _1756_
*1797 _1757_
*1798 _1758_
*1799 _1759_
*1800 _1760_
*1801 _1761_
*1802 _1762_
*1803 _1763_
*1804 _1764_
*1805 _1765_
*1806 _1766_
*1807 _1767_
*1808 _1768_
*1809 _1769_
*1810 _1770_
*1811 _1771_
*1812 _1772_
*1813 _1773_
*1814 _1774_
*1815 _1775_
*1816 _1776_
*1817 _1777_
*1818 _1778_
*1819 _1779_
*1820 _1780_
*1821 _1781_
*1822 _1782_
*1823 _1783_
*1824 _1784_
*1825 _1785_
*1826 _1786_
*1827 _1787_
*1828 _1788_
*1829 _1789_
*1830 _1790_
*1831 _1791_
*1832 _1792_
*1833 _1793_
*1834 _1794_
*1835 _1795_
*1836 _1796_
*1837 _1797_
*1838 _1798_
*1839 _1799_
*1840 _1800_
*1841 _1801_
*1842 _1802_
*1843 _1803_
*1844 _1804_
*1845 _1805_
*1846 _1806_
*1847 _1807_
*1848 _1808_
*1849 _1809_
*1850 _1810_
*1851 _1811_
*1852 _1812_
*1853 _1813_
*1854 _1814_
*1855 _1815_
*1856 _1816_
*1857 _1817_
*1858 _1818_
*1859 _1819_
*1860 _1820_
*1861 _1821_
*1862 _1822_
*1863 _1823_
*1864 _1824_
*1865 _1825_
*1866 _1826_
*1867 _1827_
*1868 _1828_
*1869 _1829_
*1870 _1830_
*1871 _1831_
*1872 _1832_
*1873 _1833_
*1874 _1834_
*1875 _1835_
*1876 _1836_
*1877 _1837_
*1878 _1838_
*1879 _1839_
*1880 _1840_
*1881 _1841_
*1882 _1842_
*1883 _1843_
*1884 _1844_
*1885 _1845_
*1886 _1846_
*1887 _1847_
*1888 _1848_
*1889 _1849_
*1890 _1850_
*1891 _1851_
*1892 _1852_
*1893 _1853_
*1894 _1854_
*1895 _1855_
*1896 _1856_
*1897 _1857_
*1898 _1858_
*1899 _1859_
*1900 _1860_
*1901 _1861_
*1902 _1862_
*1903 _1863_
*1904 _1864_
*1905 _1865_
*1906 _1866_
*1907 _1867_
*1908 _1868_
*1909 _1869_
*1910 _1870_
*1911 _1871_
*1912 _1872_
*1913 _1873_
*1914 _1874_
*1915 _1875_
*1916 _1876_
*1917 _1877_
*1918 _1878_
*1919 _1879_
*1920 _1880_
*1921 _1881_
*1922 _1882_
*1923 _1883_
*1924 _1884_
*1925 _1885_
*1926 _1886_
*1927 _1887_
*1928 _1888_
*1929 _1889_
*1930 _1890_
*1931 _1891_
*1932 _1892_
*1933 _1893_
*1934 _1894_
*1935 _1895_
*1936 _1896_
*1937 _1897_
*1938 _1898_
*1939 _1899_
*1940 _1900_
*1941 _1901_
*1942 _1902_
*1943 _1903_
*1944 _1904_
*1945 _1905_
*1946 _1906_
*1947 _1907_
*1948 _1908_
*1949 _1909_
*1950 _1910_
*1951 _1911_
*1952 _1912_
*1953 _1913_
*1954 _1914_
*1955 _1915_
*1956 _1916_
*1957 _1917_
*1958 _1918_
*1959 _1919_
*1960 _1920_
*1961 _1921_
*1962 _1922_
*1963 _1923_
*1964 _1924_
*1965 _1925_
*1966 _1926_
*1967 _1927_
*1968 _1928_
*1969 _1929_
*1970 _1930_
*1971 _1931_